@<TRIPOS>MOLECULE

  33   35
SMALL
USER_CHARGES
@<TRIPOS>ATOM
   1 N1           4.6616     2.7795    -0.0325 N.1          1    LIG   0.0000
   2 C2           3.6851     2.1912    -0.0252 C.1          1    LIG   0.0000
   3 C3           2.3829     1.4068    -0.0155 C.ar         1    LIG   0.0000
   4 C4           2.4087     0.0156    -0.0222 C.ar         1    LIG   0.0000
   5 C5           1.2071    -0.6850    -0.0128 C.ar         1    LIG   0.0000
   6 C6          -0.0114    -0.0146     0.0028 C.ar         1    LIG   0.0000
   7 C7          -0.0175     1.3764     0.0097 C.ar         1    LIG   0.0000
   8 Br8         -1.7272     2.3349     0.0310 Br           1    LIG   0.0000
   9 C9           1.1737     2.0948     0.0009 C.ar         1    LIG   0.0000
  10 N10          1.1470     3.4929     0.0077 N.pl3        1    LIG   0.0000
  11 C11          1.1305     4.3576    -1.1691 C.3          1    LIG   0.0000
  12 C12          0.9653     5.7482    -0.5907 C.3          1    LIG   0.0000
  13 C13          1.7187     5.6807     0.7249 C.3          1    LIG   0.0000
  14 C14          3.2376     5.7310     0.7443 C.3          1    LIG   0.0000
  15 N15          3.6012     7.1437     0.8762 N.am         1    LIG   0.0000
  16 C16          2.5278     7.8090     1.4607 C.2          1    LIG   0.0000
  17 O17          2.4856     8.9958     1.7314 O.2          1    LIG   0.0000
  18 C18          1.4274     6.7959     1.7095 C.3          1    LIG   0.0000
  19 C19          1.1423     4.3589     1.1899 C.3          1    LIG   0.0000
  20 H            3.2803    -0.4744    -0.0337 H            1    LIG   0.0000
  21 H            1.2195    -1.6849    -0.0172 H            1    LIG   0.0000
  22 H           -0.8710    -0.5254     0.0089 H            1    LIG   0.0000
  23 H            0.3646     4.1279    -1.7696 H            1    LIG   0.0000
  24 H            1.9876     4.2828    -1.6786 H            1    LIG   0.0000
  25 H            1.3654     6.4363    -1.1961 H            1    LIG   0.0000
  26 H           -0.0003     5.9591    -0.4385 H            1    LIG   0.0000
  27 H            3.5914     5.2086     1.5202 H            1    LIG   0.0000
  28 H            3.6072     5.3564    -0.1060 H            1    LIG   0.0000
  29 H            4.4676     7.5570     0.5957 H            1    LIG   0.0000
  30 H            0.5288     7.1981     1.5340 H            1    LIG   0.0000
  31 H            1.4631     6.4572     2.6497 H            1    LIG   0.0000
  32 H            1.7093     3.9655     1.9136 H            1    LIG   0.0000
  33 H            0.2096     4.4839     1.5280 H            1    LIG   0.0000
@<TRIPOS>BOND
   1        1        2 3
   2        2        3 1
   3        3        4 ar
   4        4        5 ar
   5        5        6 ar
   6        6        7 ar
   7        7        8 1
   8        7        9 ar
   9        9        3 ar
  10        9       10 1
  11       10       11 1
  12       11       12 1
  13       12       13 1
  14       13       14 1
  15       14       15 1
  16       15       16 am
  17       16       17 2
  18       16       18 1
  19       18       13 1
  20       13       19 1
  21       19       10 1
  22        4       20 1
  23        5       21 1
  24        6       22 1
  25       11       23 1
  26       11       24 1
  27       12       25 1
  28       12       26 1
  29       14       27 1
  30       14       28 1
  31       15       29 1
  32       18       30 1
  33       18       31 1
  34       19       32 1
  35       19       33 1

@<TRIPOS>MOLECULE

  33   35
SMALL
USER_CHARGES
@<TRIPOS>ATOM
   1 N1           4.6616     2.7795    -0.0325 N.1          1    LIG   0.0000
   2 C2           3.6851     2.1912    -0.0252 C.1          1    LIG   0.0000
   3 C3           2.3829     1.4068    -0.0155 C.ar         1    LIG   0.0000
   4 C4           2.4087     0.0156    -0.0222 C.ar         1    LIG   0.0000
   5 C5           1.2071    -0.6850    -0.0128 C.ar         1    LIG   0.0000
   6 C6          -0.0114    -0.0146     0.0028 C.ar         1    LIG   0.0000
   7 C7          -0.0175     1.3764     0.0097 C.ar         1    LIG   0.0000
   8 Br8         -1.7272     2.3349     0.0310 Br           1    LIG   0.0000
   9 C9           1.1737     2.0948     0.0009 C.ar         1    LIG   0.0000
  10 N10          1.1470     3.4929     0.0077 N.pl3        1    LIG   0.0000
  11 C11          1.1307     4.3461     1.1929 C.3          1    LIG   0.0000
  12 C12          1.2424     5.7476     0.6281 C.3          1    LIG   0.0000
  13 C13          0.4919     5.6642    -0.6882 C.3          1    LIG   0.0000
  14 C14         -1.0278     5.6565    -0.7074 C.3          1    LIG   0.0000
  15 N15         -1.4452     7.0555    -0.8255 N.am         1    LIG   0.0000
  16 C16         -0.3981     7.7670    -1.4034 C.2          1    LIG   0.0000
  17 O17         -0.4013     8.9572    -1.6624 O.2          1    LIG   0.0000
  18 C18          0.7402     6.7992    -1.6618 C.3          1    LIG   0.0000
  19 C19          1.1183     4.3699    -1.1659 C.3          1    LIG   0.0000
  20 H            3.2803    -0.4744    -0.0337 H            1    LIG   0.0000
  21 H            1.2195    -1.6849    -0.0172 H            1    LIG   0.0000
  22 H           -0.8710    -0.5254     0.0089 H            1    LIG   0.0000
  23 H            1.9049     4.1400     1.7913 H            1    LIG   0.0000
  24 H            0.2771     4.2336     1.7015 H            1    LIG   0.0000
  25 H            0.8165     6.4139     1.2402 H            1    LIG   0.0000
  26 H            2.1992     5.9966     0.4782 H            1    LIG   0.0000
  27 H           -1.3615     5.1286    -1.4884 H            1    LIG   0.0000
  28 H           -1.3827     5.2598     0.1392 H            1    LIG   0.0000
  29 H           -2.3266     7.4327    -0.5412 H            1    LIG   0.0000
  30 H            1.6228     7.2338    -1.4822 H            1    LIG   0.0000
  31 H            0.7173     6.4686    -2.6053 H            1    LIG   0.0000
  32 H            0.5666     3.9623    -1.8936 H            1    LIG   0.0000
  33 H            2.0455     4.5338    -1.5026 H            1    LIG   0.0000
@<TRIPOS>BOND
   1        1        2 3
   2        2        3 1
   3        3        4 ar
   4        4        5 ar
   5        5        6 ar
   6        6        7 ar
   7        7        8 1
   8        7        9 ar
   9        9        3 ar
  10        9       10 1
  11       10       11 1
  12       11       12 1
  13       12       13 1
  14       13       14 1
  15       14       15 1
  16       15       16 am
  17       16       17 2
  18       16       18 1
  19       18       13 1
  20       13       19 1
  21       19       10 1
  22        4       20 1
  23        5       21 1
  24        6       22 1
  25       11       23 1
  26       11       24 1
  27       12       25 1
  28       12       26 1
  29       14       27 1
  30       14       28 1
  31       15       29 1
  32       18       30 1
  33       18       31 1
  34       19       32 1
  35       19       33 1

@<TRIPOS>MOLECULE

  33   35
SMALL
USER_CHARGES
@<TRIPOS>ATOM
   1 N1           4.6616     2.7795    -0.0325 N.1          1    LIG   0.0000
   2 C2           3.6851     2.1912    -0.0252 C.1          1    LIG   0.0000
   3 C3           2.3829     1.4068    -0.0155 C.ar         1    LIG   0.0000
   4 C4           2.4087     0.0156    -0.0222 C.ar         1    LIG   0.0000
   5 C5           1.2071    -0.6850    -0.0128 C.ar         1    LIG   0.0000
   6 C6          -0.0114    -0.0146     0.0028 C.ar         1    LIG   0.0000
   7 C7          -0.0175     1.3764     0.0097 C.ar         1    LIG   0.0000
   8 Br8         -1.7272     2.3349     0.0310 Br           1    LIG   0.0000
   9 C9           1.1737     2.0948     0.0009 C.ar         1    LIG   0.0000
  10 N10          1.1469     3.4973     0.0077 N.pl3        1    LIG   0.0000
  11 C11          1.1160     4.3553    -1.1799 C.3          1    LIG   0.0000
  12 C12          1.0209     5.7625    -0.6299 C.3          1    LIG   0.0000
  13 C13          1.7452     5.6806     0.6975 C.3          1    LIG   0.0000
  14 C14          3.2552     5.8198     0.5823 C.3          1    LIG   0.0000
  15 N15          3.7228     6.4069     1.8435 N.am         1    LIG   0.0000
  16 C16          2.6429     7.0907     2.3976 C.2          1    LIG   0.0000
  17 O17          2.6834     7.7172     3.4391 O.2          1    LIG   0.0000
  18 C18          1.4311     6.9420     1.4868 C.3          1    LIG   0.0000
  19 C19          1.1419     4.3791     1.1807 C.3          1    LIG   0.0000
  20 H            3.2803    -0.4744    -0.0337 H            1    LIG   0.0000
  21 H            1.2195    -1.6849    -0.0172 H            1    LIG   0.0000
  22 H           -0.8710    -0.5254     0.0089 H            1    LIG   0.0000
  23 H            0.3208     4.1436    -1.7481 H            1    LIG   0.0000
  24 H            1.9506     4.2425    -1.7191 H            1    LIG   0.0000
  25 H            1.4692     6.4150    -1.2408 H            1    LIG   0.0000
  26 H            0.0663     6.0302    -0.4990 H            1    LIG   0.0000
  27 H            3.6743     4.9225     0.4437 H            1    LIG   0.0000
  28 H            3.4886     6.4186    -0.1838 H            1    LIG   0.0000
  29 H            4.6414     6.3305     2.2312 H            1    LIG   0.0000
  30 H            1.3391     7.7315     0.8800 H            1    LIG   0.0000
  31 H            0.5925     6.8321     2.0202 H            1    LIG   0.0000
  32 H            1.6944     3.9878     1.9166 H            1    LIG   0.0000
  33 H            0.2077     4.5247     1.5065 H            1    LIG   0.0000
@<TRIPOS>BOND
   1        1        2 3
   2        2        3 1
   3        3        4 ar
   4        4        5 ar
   5        5        6 ar
   6        6        7 ar
   7        7        8 1
   8        7        9 ar
   9        9        3 ar
  10        9       10 1
  11       10       11 1
  12       11       12 1
  13       12       13 1
  14       13       14 1
  15       14       15 1
  16       15       16 am
  17       16       17 2
  18       16       18 1
  19       18       13 1
  20       13       19 1
  21       19       10 1
  22        4       20 1
  23        5       21 1
  24        6       22 1
  25       11       23 1
  26       11       24 1
  27       12       25 1
  28       12       26 1
  29       14       27 1
  30       14       28 1
  31       15       29 1
  32       18       30 1
  33       18       31 1
  34       19       32 1
  35       19       33 1

@<TRIPOS>MOLECULE

  33   35
SMALL
USER_CHARGES
@<TRIPOS>ATOM
   1 N1           4.6616     2.7795    -0.0325 N.1          1    LIG   0.0000
   2 C2           3.6851     2.1912    -0.0252 C.1          1    LIG   0.0000
   3 C3           2.3829     1.4068    -0.0155 C.ar         1    LIG   0.0000
   4 C4           2.4087     0.0156    -0.0222 C.ar         1    LIG   0.0000
   5 C5           1.2071    -0.6850    -0.0128 C.ar         1    LIG   0.0000
   6 C6          -0.0114    -0.0146     0.0028 C.ar         1    LIG   0.0000
   7 C7          -0.0175     1.3764     0.0097 C.ar         1    LIG   0.0000
   8 Br8         -1.7272     2.3349     0.0310 Br           1    LIG   0.0000
   9 C9           1.1737     2.0948     0.0009 C.ar         1    LIG   0.0000
  10 N10          1.1469     3.4973     0.0077 N.pl3        1    LIG   0.0000
  11 C11          1.1452     4.3443     1.2037 C.3          1    LIG   0.0000
  12 C12          1.1864     5.7593     0.6675 C.3          1    LIG   0.0000
  13 C13          0.4654     5.6628    -0.6608 C.3          1    LIG   0.0000
  14 C14         -1.0488     5.7430    -0.5445 C.3          1    LIG   0.0000
  15 N15         -1.5386     6.3241    -1.8000 N.am         1    LIG   0.0000
  16 C16         -0.4858     7.0541    -2.3472 C.2          1    LIG   0.0000
  17 O17         -0.5504     7.6886    -3.3826 O.2          1    LIG   0.0000
  18 C18          0.7309     6.9429    -1.4376 C.3          1    LIG   0.0000
  19 C19          1.1180     4.3901    -1.1565 C.3          1    LIG   0.0000
  20 H            3.2803    -0.4744    -0.0337 H            1    LIG   0.0000
  21 H            1.2195    -1.6849    -0.0172 H            1    LIG   0.0000
  22 H           -0.8710    -0.5254     0.0089 H            1    LIG   0.0000
  23 H            1.9480     4.1576     1.7699 H            1    LIG   0.0000
  24 H            0.3157     4.1943     1.7416 H            1    LIG   0.0000
  25 H            0.7135     6.3882     1.2847 H            1    LIG   0.0000
  26 H            2.1300     6.0646     0.5394 H            1    LIG   0.0000
  27 H           -1.4332     4.8290    -0.4148 H            1    LIG   0.0000
  28 H           -1.3047     6.3249     0.2274 H            1    LIG   0.0000
  29 H           -2.4537     6.2165    -2.1887 H            1    LIG   0.0000
  30 H            0.7928     7.7294    -0.8232 H            1    LIG   0.0000
  31 H            1.5731     6.8703    -1.9720 H            1    LIG   0.0000
  32 H            0.5807     3.9851    -1.8963 H            1    LIG   0.0000
  33 H            2.0458     4.5745    -1.4808 H            1    LIG   0.0000
@<TRIPOS>BOND
   1        1        2 3
   2        2        3 1
   3        3        4 ar
   4        4        5 ar
   5        5        6 ar
   6        6        7 ar
   7        7        8 1
   8        7        9 ar
   9        9        3 ar
  10        9       10 1
  11       10       11 1
  12       11       12 1
  13       12       13 1
  14       13       14 1
  15       14       15 1
  16       15       16 am
  17       16       17 2
  18       16       18 1
  19       18       13 1
  20       13       19 1
  21       19       10 1
  22        4       20 1
  23        5       21 1
  24        6       22 1
  25       11       23 1
  26       11       24 1
  27       12       25 1
  28       12       26 1
  29       14       27 1
  30       14       28 1
  31       15       29 1
  32       18       30 1
  33       18       31 1
  34       19       32 1
  35       19       33 1

@<TRIPOS>MOLECULE

  33   35
SMALL
USER_CHARGES
@<TRIPOS>ATOM
   1 N1           4.6616     2.7795    -0.0325 N.1          1    LIG   0.0000
   2 C2           3.6851     2.1912    -0.0252 C.1          1    LIG   0.0000
   3 C3           2.3829     1.4068    -0.0155 C.ar         1    LIG   0.0000
   4 C4           2.4087     0.0156    -0.0222 C.ar         1    LIG   0.0000
   5 C5           1.2071    -0.6850    -0.0128 C.ar         1    LIG   0.0000
   6 C6          -0.0114    -0.0146     0.0028 C.ar         1    LIG   0.0000
   7 C7          -0.0175     1.3764     0.0097 C.ar         1    LIG   0.0000
   8 Br8         -1.7272     2.3349     0.0310 Br           1    LIG   0.0000
   9 C9           1.1737     2.0948     0.0009 C.ar         1    LIG   0.0000
  10 N10          1.1470     3.4940     0.0077 N.pl3        1    LIG   0.0000
  11 C11          1.0987     4.3610    -1.1737 C.3          1    LIG   0.0000
  12 C12          1.0603     5.7684    -0.6168 C.3          1    LIG   0.0000
  13 C13          0.4340     5.6419     0.7639 C.3          1    LIG   0.0000
  14 C14          0.6553     6.7731     1.7475 C.3          1    LIG   0.0000
  15 N15         -0.4744     7.7035     1.6318 N.am         1    LIG   0.0000
  16 C16         -1.5418     6.9746     1.1060 C.2          1    LIG   0.0000
  17 O17         -2.6541     7.4167     0.8720 O.2          1    LIG   0.0000
  18 C18         -1.0689     5.5496     0.8807 C.3          1    LIG   0.0000
  19 C19          1.1422     4.3633     1.1844 C.3          1    LIG   0.0000
  20 H            3.2803    -0.4744    -0.0337 H            1    LIG   0.0000
  21 H            1.2195    -1.6849    -0.0172 H            1    LIG   0.0000
  22 H           -0.8710    -0.5254     0.0089 H            1    LIG   0.0000
  23 H            0.2792     4.1737    -1.7153 H            1    LIG   0.0000
  24 H            1.9111     4.2286    -1.7416 H            1    LIG   0.0000
  25 H            1.9851     6.1425    -0.5481 H            1    LIG   0.0000
  26 H            0.5039     6.3601    -1.2001 H            1    LIG   0.0000
  27 H            0.7014     6.4095     2.6779 H            1    LIG   0.0000
  28 H            1.5089     7.2476     1.5324 H            1    LIG   0.0000
  29 H           -0.4782     8.6718     1.8814 H            1    LIG   0.0000
  30 H           -1.4634     5.1784     0.0401 H            1    LIG   0.0000
  31 H           -1.3251     4.9692     1.6537 H            1    LIG   0.0000
  32 H            2.0790     4.5639     1.4711 H            1    LIG   0.0000
  33 H            0.6499     3.9256     1.9368 H            1    LIG   0.0000
@<TRIPOS>BOND
   1        1        2 3
   2        2        3 1
   3        3        4 ar
   4        4        5 ar
   5        5        6 ar
   6        6        7 ar
   7        7        8 1
   8        7        9 ar
   9        9        3 ar
  10        9       10 1
  11       10       11 1
  12       11       12 1
  13       12       13 1
  14       13       14 1
  15       14       15 1
  16       15       16 am
  17       16       17 2
  18       16       18 1
  19       18       13 1
  20       13       19 1
  21       19       10 1
  22        4       20 1
  23        5       21 1
  24        6       22 1
  25       11       23 1
  26       11       24 1
  27       12       25 1
  28       12       26 1
  29       14       27 1
  30       14       28 1
  31       15       29 1
  32       18       30 1
  33       18       31 1
  34       19       32 1
  35       19       33 1

@<TRIPOS>MOLECULE

  33   35
SMALL
USER_CHARGES
@<TRIPOS>ATOM
   1 N1           4.6616     2.7795    -0.0325 N.1          1    LIG   0.0000
   2 C2           3.6851     2.1912    -0.0252 C.1          1    LIG   0.0000
   3 C3           2.3829     1.4068    -0.0155 C.ar         1    LIG   0.0000
   4 C4           2.4087     0.0156    -0.0222 C.ar         1    LIG   0.0000
   5 C5           1.2071    -0.6850    -0.0128 C.ar         1    LIG   0.0000
   6 C6          -0.0114    -0.0146     0.0028 C.ar         1    LIG   0.0000
   7 C7          -0.0175     1.3764     0.0097 C.ar         1    LIG   0.0000
   8 Br8         -1.7272     2.3349     0.0310 Br           1    LIG   0.0000
   9 C9           1.1737     2.0948     0.0009 C.ar         1    LIG   0.0000
  10 N10          1.1470     3.4940     0.0077 N.pl3        1    LIG   0.0000
  11 C11          1.1623     4.3507     1.1976 C.3          1    LIG   0.0000
  12 C12          1.1467     5.7639     0.6544 C.3          1    LIG   0.0000
  13 C13          1.7772     5.6749    -0.7273 C.3          1    LIG   0.0000
  14 C14          1.5126     6.8063    -1.6999 C.3          1    LIG   0.0000
  15 N15          2.6060     7.7780    -1.5749 N.am         1    LIG   0.0000
  16 C16          3.7006     7.0854    -1.0561 C.2          1    LIG   0.0000
  17 O17          4.7952     7.5674    -0.8175 O.2          1    LIG   0.0000
  18 C18          3.2825     5.6412    -0.8447 C.3          1    LIG   0.0000
  19 C19          1.1183     4.3742    -1.1604 C.3          1    LIG   0.0000
  20 H            3.2803    -0.4744    -0.0337 H            1    LIG   0.0000
  21 H            1.2195    -1.6849    -0.0172 H            1    LIG   0.0000
  22 H           -0.8710    -0.5254     0.0089 H            1    LIG   0.0000
  23 H            1.9884     4.1895     1.7375 H            1    LIG   0.0000
  24 H            0.3556     4.1818     1.7640 H            1    LIG   0.0000
  25 H            0.2083     6.1030     0.5892 H            1    LIG   0.0000
  26 H            1.6803     6.3706     1.2436 H            1    LIG   0.0000
  27 H            1.4803     6.4503    -2.6338 H            1    LIG   0.0000
  28 H            0.6416     7.2457    -1.4803 H            1    LIG   0.0000
  29 H            2.5727     8.7482    -1.8150 H            1    LIG   0.0000
  30 H            3.6910     5.2772    -0.0077 H            1    LIG   0.0000
  31 H            3.5606     5.0786    -1.6233 H            1    LIG   0.0000
  32 H            0.1744     4.5418    -1.4453 H            1    LIG   0.0000
  33 H            1.6268     3.9631    -1.9170 H            1    LIG   0.0000
@<TRIPOS>BOND
   1        1        2 3
   2        2        3 1
   3        3        4 ar
   4        4        5 ar
   5        5        6 ar
   6        6        7 ar
   7        7        8 1
   8        7        9 ar
   9        9        3 ar
  10        9       10 1
  11       10       11 1
  12       11       12 1
  13       12       13 1
  14       13       14 1
  15       14       15 1
  16       15       16 am
  17       16       17 2
  18       16       18 1
  19       18       13 1
  20       13       19 1
  21       19       10 1
  22        4       20 1
  23        5       21 1
  24        6       22 1
  25       11       23 1
  26       11       24 1
  27       12       25 1
  28       12       26 1
  29       14       27 1
  30       14       28 1
  31       15       29 1
  32       18       30 1
  33       18       31 1
  34       19       32 1
  35       19       33 1

@<TRIPOS>MOLECULE

  33   35
SMALL
USER_CHARGES
@<TRIPOS>ATOM
   1 N1           4.6616     2.7795    -0.0325 N.1          1    LIG   0.0000
   2 C2           3.6851     2.1912    -0.0252 C.1          1    LIG   0.0000
   3 C3           2.3829     1.4068    -0.0155 C.ar         1    LIG   0.0000
   4 C4           2.4087     0.0156    -0.0222 C.ar         1    LIG   0.0000
   5 C5           1.2071    -0.6850    -0.0128 C.ar         1    LIG   0.0000
   6 C6          -0.0114    -0.0146     0.0028 C.ar         1    LIG   0.0000
   7 C7          -0.0175     1.3764     0.0097 C.ar         1    LIG   0.0000
   8 Br8         -1.7272     2.3349     0.0310 Br           1    LIG   0.0000
   9 C9           1.1737     2.0948     0.0009 C.ar         1    LIG   0.0000
  10 N10          1.1470     3.4926     0.0077 N.pl3        1    LIG   0.0000
  11 C11          1.1259     4.3645    -1.1685 C.3          1    LIG   0.0000
  12 C12          0.6118     5.6975    -0.6680 C.3          1    LIG   0.0000
  13 C13          0.2023     5.4796     0.7722 C.3          1    LIG   0.0000
  14 C14          0.3194     6.8892     1.3287 C.3          1    LIG   0.0000
  15 N15         -0.5843     7.0109     2.4719 N.am         1    LIG   0.0000
  16 C16         -1.5699     6.0416     2.3040 C.2          1    LIG   0.0000
  17 O17         -2.5104     5.8413     3.0594 O.2          1    LIG   0.0000
  18 C18         -1.2848     5.2797     1.0244 C.3          1    LIG   0.0000
  19 C19          1.1425     4.3556     1.1962 C.3          1    LIG   0.0000
  20 H            3.2803    -0.4744    -0.0337 H            1    LIG   0.0000
  21 H            1.2195    -1.6849    -0.0172 H            1    LIG   0.0000
  22 H           -0.8710    -0.5254     0.0089 H            1    LIG   0.0000
  23 H            0.5152     3.9939    -1.8683 H            1    LIG   0.0000
  24 H            2.0459     4.4638    -1.5475 H            1    LIG   0.0000
  25 H            1.3320     6.3892    -0.7225 H            1    LIG   0.0000
  26 H           -0.1746     5.9916    -1.2111 H            1    LIG   0.0000
  27 H            1.2601     7.0593     1.6222 H            1    LIG   0.0000
  28 H            0.0648     7.5523     0.6249 H            1    LIG   0.0000
  29 H           -0.5092     7.6627     3.2266 H            1    LIG   0.0000
  30 H           -1.8229     5.6499     0.2672 H            1    LIG   0.0000
  31 H           -1.4947     4.3087     1.1390 H            1    LIG   0.0000
  32 H            2.0584     4.7042     1.3950 H            1    LIG   0.0000
  33 H            0.7898     3.8698     1.9960 H            1    LIG   0.0000
@<TRIPOS>BOND
   1        1        2 3
   2        2        3 1
   3        3        4 ar
   4        4        5 ar
   5        5        6 ar
   6        6        7 ar
   7        7        8 1
   8        7        9 ar
   9        9        3 ar
  10        9       10 1
  11       10       11 1
  12       11       12 1
  13       12       13 1
  14       13       14 1
  15       14       15 1
  16       15       16 am
  17       16       17 2
  18       16       18 1
  19       18       13 1
  20       13       19 1
  21       19       10 1
  22        4       20 1
  23        5       21 1
  24        6       22 1
  25       11       23 1
  26       11       24 1
  27       12       25 1
  28       12       26 1
  29       14       27 1
  30       14       28 1
  31       15       29 1
  32       18       30 1
  33       18       31 1
  34       19       32 1
  35       19       33 1

@<TRIPOS>MOLECULE

  33   35
SMALL
USER_CHARGES
@<TRIPOS>ATOM
   1 N1           4.6616     2.7795    -0.0325 N.1          1    LIG   0.0000
   2 C2           3.6851     2.1912    -0.0252 C.1          1    LIG   0.0000
   3 C3           2.3829     1.4068    -0.0155 C.ar         1    LIG   0.0000
   4 C4           2.4087     0.0156    -0.0222 C.ar         1    LIG   0.0000
   5 C5           1.2071    -0.6850    -0.0128 C.ar         1    LIG   0.0000
   6 C6          -0.0114    -0.0146     0.0028 C.ar         1    LIG   0.0000
   7 C7          -0.0175     1.3764     0.0097 C.ar         1    LIG   0.0000
   8 Br8         -1.7272     2.3349     0.0310 Br           1    LIG   0.0000
   9 C9           1.1737     2.0948     0.0009 C.ar         1    LIG   0.0000
  10 N10          1.1470     3.4926     0.0077 N.pl3        1    LIG   0.0000
  11 C11          0.5364     4.3524    -1.0081 C.3          1    LIG   0.0000
  12 C12          0.3347     5.6906    -0.3296 C.3          1    LIG   0.0000
  13 C13          0.7010     5.4874     1.1243 C.3          1    LIG   0.0000
  14 C14          1.0736     6.9026     1.5352 C.3          1    LIG   0.0000
  15 N15          0.8618     7.0361     2.9760 N.am         1    LIG   0.0000
  16 C16         -0.0709     6.0652     3.3319 C.2          1    LIG   0.0000
  17 O17         -0.5068     5.8728     4.4580 O.2          1    LIG   0.0000
  18 C18         -0.4598     5.2902     2.0880 C.3          1    LIG   0.0000
  19 C19          1.7329     4.3677     1.0316 C.3          1    LIG   0.0000
  20 H            3.2803    -0.4744    -0.0337 H            1    LIG   0.0000
  21 H            1.2195    -1.6849    -0.0172 H            1    LIG   0.0000
  22 H           -0.8710    -0.5254     0.0089 H            1    LIG   0.0000
  23 H           -0.3405     3.9748    -1.3056 H            1    LIG   0.0000
  24 H            1.1432     4.4477    -1.7972 H            1    LIG   0.0000
  25 H            0.9277     6.3815    -0.7430 H            1    LIG   0.0000
  26 H           -0.6194     5.9792    -0.4094 H            1    LIG   0.0000
  27 H            2.0342     7.0756     1.3176 H            1    LIG   0.0000
  28 H            0.4979     7.5586     1.0470 H            1    LIG   0.0000
  29 H            1.3008     7.6956     3.5862 H            1    LIG   0.0000
  30 H           -1.3062     5.6528     1.6979 H            1    LIG   0.0000
  31 H           -0.5795     4.3205     2.3008 H            1    LIG   0.0000
  32 H            2.6238     4.7182     0.7427 H            1    LIG   0.0000
  33 H            1.8297     3.8901     1.9048 H            1    LIG   0.0000
@<TRIPOS>BOND
   1        1        2 3
   2        2        3 1
   3        3        4 ar
   4        4        5 ar
   5        5        6 ar
   6        6        7 ar
   7        7        8 1
   8        7        9 ar
   9        9        3 ar
  10        9       10 1
  11       10       11 1
  12       11       12 1
  13       12       13 1
  14       13       14 1
  15       14       15 1
  16       15       16 am
  17       16       17 2
  18       16       18 1
  19       18       13 1
  20       13       19 1
  21       19       10 1
  22        4       20 1
  23        5       21 1
  24        6       22 1
  25       11       23 1
  26       11       24 1
  27       12       25 1
  28       12       26 1
  29       14       27 1
  30       14       28 1
  31       15       29 1
  32       18       30 1
  33       18       31 1
  34       19       32 1
  35       19       33 1

@<TRIPOS>MOLECULE

  33   35
SMALL
USER_CHARGES
@<TRIPOS>ATOM
   1 N1           4.6616     2.7795    -0.0325 N.1          1    LIG   0.0000
   2 C2           3.6851     2.1912    -0.0252 C.1          1    LIG   0.0000
   3 C3           2.3829     1.4068    -0.0155 C.ar         1    LIG   0.0000
   4 C4           2.4087     0.0156    -0.0222 C.ar         1    LIG   0.0000
   5 C5           1.2071    -0.6850    -0.0128 C.ar         1    LIG   0.0000
   6 C6          -0.0114    -0.0146     0.0028 C.ar         1    LIG   0.0000
   7 C7          -0.0175     1.3764     0.0097 C.ar         1    LIG   0.0000
   8 Br8         -1.7272     2.3349     0.0310 Br           1    LIG   0.0000
   9 C9           1.1737     2.0948     0.0009 C.ar         1    LIG   0.0000
  10 N10          1.1470     3.4926     0.0077 N.pl3        1    LIG   0.0000
  11 C11          1.1350     4.3531     1.1924 C.3          1    LIG   0.0000
  12 C12          1.5976     5.7096     0.7050 C.3          1    LIG   0.0000
  13 C13          2.0149     5.5216    -0.7371 C.3          1    LIG   0.0000
  14 C14          1.8439     6.9311    -1.2799 C.3          1    LIG   0.0000
  15 N15          2.7421     7.0984    -2.4217 N.am         1    LIG   0.0000
  16 C16          3.7640     6.1659    -2.2631 C.2          1    LIG   0.0000
  17 O17          4.7114     6.0091    -3.0202 O.2          1    LIG   0.0000
  18 C18          3.5085     5.3811    -0.9910 C.3          1    LIG   0.0000
  19 C19          1.1183     4.3667    -1.1723 C.3          1    LIG   0.0000
  20 H            3.2803    -0.4744    -0.0337 H            1    LIG   0.0000
  21 H            1.2195    -1.6849    -0.0172 H            1    LIG   0.0000
  22 H           -0.8710    -0.5254     0.0089 H            1    LIG   0.0000
  23 H            1.7595     3.9994     1.8887 H            1    LIG   0.0000
  24 H            0.2119     4.4135     1.5722 H            1    LIG   0.0000
  25 H            0.8515     6.3727     0.7661 H            1    LIG   0.0000
  26 H            2.3723     6.0283     1.2511 H            1    LIG   0.0000
  27 H            0.8974     7.0679    -1.5719 H            1    LIG   0.0000
  28 H            2.0731     7.5966    -0.5696 H            1    LIG   0.0000
  29 H            2.6420     7.7542    -3.1700 H            1    LIG   0.0000
  30 H            4.0322     5.7643    -0.2302 H            1    LIG   0.0000
  31 H            3.7554     4.4201    -1.1150 H            1    LIG   0.0000
  32 H            0.1897     4.6820    -1.3678 H            1    LIG   0.0000
  33 H            1.4891     3.9026    -1.9767 H            1    LIG   0.0000
@<TRIPOS>BOND
   1        1        2 3
   2        2        3 1
   3        3        4 ar
   4        4        5 ar
   5        5        6 ar
   6        6        7 ar
   7        7        8 1
   8        7        9 ar
   9        9        3 ar
  10        9       10 1
  11       10       11 1
  12       11       12 1
  13       12       13 1
  14       13       14 1
  15       14       15 1
  16       15       16 am
  17       16       17 2
  18       16       18 1
  19       18       13 1
  20       13       19 1
  21       19       10 1
  22        4       20 1
  23        5       21 1
  24        6       22 1
  25       11       23 1
  26       11       24 1
  27       12       25 1
  28       12       26 1
  29       14       27 1
  30       14       28 1
  31       15       29 1
  32       18       30 1
  33       18       31 1
  34       19       32 1
  35       19       33 1

@<TRIPOS>MOLECULE

  33   35
SMALL
USER_CHARGES
@<TRIPOS>ATOM
   1 N1           4.6616     2.7795    -0.0325 N.1          1    LIG   0.0000
   2 C2           3.6851     2.1912    -0.0252 C.1          1    LIG   0.0000
   3 C3           2.3829     1.4068    -0.0155 C.ar         1    LIG   0.0000
   4 C4           2.4087     0.0156    -0.0222 C.ar         1    LIG   0.0000
   5 C5           1.2071    -0.6850    -0.0128 C.ar         1    LIG   0.0000
   6 C6          -0.0114    -0.0146     0.0028 C.ar         1    LIG   0.0000
   7 C7          -0.0175     1.3764     0.0097 C.ar         1    LIG   0.0000
   8 Br8         -1.7272     2.3349     0.0310 Br           1    LIG   0.0000
   9 C9           1.1737     2.0948     0.0009 C.ar         1    LIG   0.0000
  10 N10          1.1470     3.4926     0.0077 N.pl3        1    LIG   0.0000
  11 C11          1.7245     4.3652     1.0320 C.3          1    LIG   0.0000
  12 C12          1.8747     5.7166     0.3666 C.3          1    LIG   0.0000
  13 C13          1.5162     5.5138    -1.0893 C.3          1    LIG   0.0000
  14 C14          1.0897     6.9177    -1.4864 C.3          1    LIG   0.0000
  15 N15          1.2960     7.0732    -2.9258 N.am         1    LIG   0.0000
  16 C16          2.2650     6.1422    -3.2910 C.2          1    LIG   0.0000
  17 O17          2.7078     5.9776    -4.4188 O.2          1    LIG   0.0000
  18 C18          2.6835     5.3706    -2.0546 C.3          1    LIG   0.0000
  19 C19          0.5279     4.3546    -1.0076 C.3          1    LIG   0.0000
  20 H            3.2803    -0.4744    -0.0337 H            1    LIG   0.0000
  21 H            1.2195    -1.6849    -0.0172 H            1    LIG   0.0000
  22 H           -0.8710    -0.5254     0.0089 H            1    LIG   0.0000
  23 H            2.6152     4.0185     1.3260 H            1    LIG   0.0000
  24 H            1.1146     4.4295     1.8219 H            1    LIG   0.0000
  25 H            1.2558     6.3803     0.7866 H            1    LIG   0.0000
  26 H            2.8171     6.0407     0.4494 H            1    LIG   0.0000
  27 H            0.1233     7.0516    -1.2673 H            1    LIG   0.0000
  28 H            1.6400     7.5903    -0.9918 H            1    LIG   0.0000
  29 H            0.8320     7.7213    -3.5296 H            1    LIG   0.0000
  30 H            3.5155     5.7614    -1.6609 H            1    LIG   0.0000
  31 H            2.8401     4.4082    -2.2768 H            1    LIG   0.0000
  32 H           -0.3757     4.6680    -0.7156 H            1    LIG   0.0000
  33 H            0.4492     3.8823    -1.8855 H            1    LIG   0.0000
@<TRIPOS>BOND
   1        1        2 3
   2        2        3 1
   3        3        4 ar
   4        4        5 ar
   5        5        6 ar
   6        6        7 ar
   7        7        8 1
   8        7        9 ar
   9        9        3 ar
  10        9       10 1
  11       10       11 1
  12       11       12 1
  13       12       13 1
  14       13       14 1
  15       14       15 1
  16       15       16 am
  17       16       17 2
  18       16       18 1
  19       18       13 1
  20       13       19 1
  21       19       10 1
  22        4       20 1
  23        5       21 1
  24        6       22 1
  25       11       23 1
  26       11       24 1
  27       12       25 1
  28       12       26 1
  29       14       27 1
  30       14       28 1
  31       15       29 1
  32       18       30 1
  33       18       31 1
  34       19       32 1
  35       19       33 1

@<TRIPOS>MOLECULE

  33   35
SMALL
USER_CHARGES
@<TRIPOS>ATOM
   1 N1           4.6616     2.7795    -0.0325 N.1          1    LIG   0.0000
   2 C2           3.6851     2.1912    -0.0252 C.1          1    LIG   0.0000
   3 C3           2.3829     1.4068    -0.0155 C.ar         1    LIG   0.0000
   4 C4           2.4087     0.0156    -0.0222 C.ar         1    LIG   0.0000
   5 C5           1.2071    -0.6850    -0.0128 C.ar         1    LIG   0.0000
   6 C6          -0.0114    -0.0146     0.0028 C.ar         1    LIG   0.0000
   7 C7          -0.0175     1.3764     0.0097 C.ar         1    LIG   0.0000
   8 Br8         -1.7272     2.3349     0.0310 Br           1    LIG   0.0000
   9 C9           1.1737     2.0948     0.0009 C.ar         1    LIG   0.0000
  10 N10          1.1469     3.4983     0.0077 N.pl3        1    LIG   0.0000
  11 C11          1.6925     4.3993    -1.0147 C.3          1    LIG   0.0000
  12 C12          1.2743     5.7939    -0.5756 C.3          1    LIG   0.0000
  13 C13          0.1009     5.6583     0.3846 C.3          1    LIG   0.0000
  14 C14         -0.1546     6.8827     1.2374 C.3          1    LIG   0.0000
  15 N15         -1.5744     6.8884     1.5928 N.am         1    LIG   0.0000
  16 C16         -2.2393     6.1652     0.6106 C.2          1    LIG   0.0000
  17 O17         -3.4451     5.9652     0.5661 O.2          1    LIG   0.0000
  18 C18         -1.2100     5.6800    -0.3857 C.3          1    LIG   0.0000
  19 C19          0.5523     4.3633     1.0368 C.3          1    LIG   0.0000
  20 H            3.2803    -0.4744    -0.0337 H            1    LIG   0.0000
  21 H            1.2195    -1.6849    -0.0172 H            1    LIG   0.0000
  22 H           -0.8710    -0.5254     0.0089 H            1    LIG   0.0000
  23 H            1.3094     4.1842    -1.9130 H            1    LIG   0.0000
  24 H            2.6892     4.3266    -1.0513 H            1    LIG   0.0000
  25 H            2.0377     6.2471    -0.1153 H            1    LIG   0.0000
  26 H            0.9992     6.3315    -1.3726 H            1    LIG   0.0000
  27 H            0.4038     6.8433     2.0660 H            1    LIG   0.0000
  28 H            0.0710     7.7097     0.7224 H            1    LIG   0.0000
  29 H           -1.9870     7.3287     2.3902 H            1    LIG   0.0000
  30 H           -1.1508     6.3060    -1.1633 H            1    LIG   0.0000
  31 H           -1.4414     4.7636    -0.7124 H            1    LIG   0.0000
  32 H            1.2319     4.5615     1.7431 H            1    LIG   0.0000
  33 H           -0.2334     3.9031     1.4500 H            1    LIG   0.0000
@<TRIPOS>BOND
   1        1        2 3
   2        2        3 1
   3        3        4 ar
   4        4        5 ar
   5        5        6 ar
   6        6        7 ar
   7        7        8 1
   8        7        9 ar
   9        9        3 ar
  10        9       10 1
  11       10       11 1
  12       11       12 1
  13       12       13 1
  14       13       14 1
  15       14       15 1
  16       15       16 am
  17       16       17 2
  18       16       18 1
  19       18       13 1
  20       13       19 1
  21       19       10 1
  22        4       20 1
  23        5       21 1
  24        6       22 1
  25       11       23 1
  26       11       24 1
  27       12       25 1
  28       12       26 1
  29       14       27 1
  30       14       28 1
  31       15       29 1
  32       18       30 1
  33       18       31 1
  34       19       32 1
  35       19       33 1

@<TRIPOS>MOLECULE

  33   35
SMALL
USER_CHARGES
@<TRIPOS>ATOM
   1 N1           4.6616     2.7795    -0.0325 N.1          1    LIG   0.0000
   2 C2           3.6851     2.1912    -0.0252 C.1          1    LIG   0.0000
   3 C3           2.3829     1.4068    -0.0155 C.ar         1    LIG   0.0000
   4 C4           2.4087     0.0156    -0.0222 C.ar         1    LIG   0.0000
   5 C5           1.2071    -0.6850    -0.0128 C.ar         1    LIG   0.0000
   6 C6          -0.0114    -0.0146     0.0028 C.ar         1    LIG   0.0000
   7 C7          -0.0175     1.3764     0.0097 C.ar         1    LIG   0.0000
   8 Br8         -1.7272     2.3349     0.0310 Br           1    LIG   0.0000
   9 C9           1.1737     2.0948     0.0009 C.ar         1    LIG   0.0000
  10 N10          1.1469     3.4983     0.0077 N.pl3        1    LIG   0.0000
  11 C11          0.5674     4.3677     1.0388 C.3          1    LIG   0.0000
  12 C12          0.9319     5.7816     0.6134 C.3          1    LIG   0.0000
  13 C13          2.1095     5.7002    -0.3478 C.3          1    LIG   0.0000
  14 C14          2.3178     6.9418    -1.1886 C.3          1    LIG   0.0000
  15 N15          3.7363     7.0052    -1.5436 N.am         1    LIG   0.0000
  16 C16          4.4285     6.2984    -0.5685 C.2          1    LIG   0.0000
  17 O17          5.6411     6.1443    -0.5256 O.2          1    LIG   0.0000
  18 C18          3.4188     5.7646     0.4229 C.3          1    LIG   0.0000
  19 C19          1.7077     4.3954    -1.0127 C.3          1    LIG   0.0000
  20 H            3.2803    -0.4744    -0.0337 H            1    LIG   0.0000
  21 H            1.2195    -1.6849    -0.0172 H            1    LIG   0.0000
  22 H           -0.8710    -0.5254     0.0089 H            1    LIG   0.0000
  23 H            0.9586     4.1587     1.9351 H            1    LIG   0.0000
  24 H           -0.4257     4.2566     1.0745 H            1    LIG   0.0000
  25 H            0.1516     6.2097     0.1575 H            1    LIG   0.0000
  26 H            1.1865     6.3215     1.4157 H            1    LIG   0.0000
  27 H            1.7612     6.8892    -2.0177 H            1    LIG   0.0000
  28 H            2.0609     7.7545    -0.6656 H            1    LIG   0.0000
  29 H            4.1316     7.4687    -2.3366 H            1    LIG   0.0000
  30 H            3.3358     6.3802     1.2066 H            1    LIG   0.0000
  31 H            3.6850     4.8546     0.7407 H            1    LIG   0.0000
  32 H            1.0210     4.5744    -1.7172 H            1    LIG   0.0000
  33 H            2.5105     3.9696    -1.4302 H            1    LIG   0.0000
@<TRIPOS>BOND
   1        1        2 3
   2        2        3 1
   3        3        4 ar
   4        4        5 ar
   5        5        6 ar
   6        6        7 ar
   7        7        8 1
   8        7        9 ar
   9        9        3 ar
  10        9       10 1
  11       10       11 1
  12       11       12 1
  13       12       13 1
  14       13       14 1
  15       14       15 1
  16       15       16 am
  17       16       17 2
  18       16       18 1
  19       18       13 1
  20       13       19 1
  21       19       10 1
  22        4       20 1
  23        5       21 1
  24        6       22 1
  25       11       23 1
  26       11       24 1
  27       12       25 1
  28       12       26 1
  29       14       27 1
  30       14       28 1
  31       15       29 1
  32       18       30 1
  33       18       31 1
  34       19       32 1
  35       19       33 1

