@<TRIPOS>MOLECULE
*****
 33 35 0 0 0
SMALL
USER_CHARGES

@<TRIPOS>ATOM
      1 N1          4.6616    2.7795   -0.0325 N.1     1  LIG1        0.0000
      2 C2          3.6851    2.1912   -0.0252 C.1     1  LIG1        0.0000
      3 C3          2.3829    1.4068   -0.0155 C.3     1  LIG1        0.0000
      4 C4          2.4087    0.0156   -0.0222 C.3     1  LIG1        0.0000
      5 C5          1.2071   -0.6850   -0.0128 C.3     1  LIG1        0.0000
      6 C6         -0.0114   -0.0146    0.0028 C.3     1  LIG1        0.0000
      7 C7         -0.0175    1.3764    0.0097 C.3     1  LIG1        0.0000
      8 Br8        -1.7272    2.3349    0.0310 Br      1  LIG1        0.0000
      9 C9          1.1737    2.0948    0.0009 C.3     1  LIG1        0.0000
     10 N10         1.1470    3.4926    0.0077 N.pl3   1  LIG1        0.0000
     11 C11         1.1350    4.3531    1.1924 C.3     1  LIG1        0.0000
     12 C12         1.5976    5.7096    0.7050 C.3     1  LIG1        0.0000
     13 C13         2.0149    5.5216   -0.7371 C.3     1  LIG1        0.0000
     14 C14         1.8439    6.9311   -1.2799 C.3     1  LIG1        0.0000
     15 N15         2.7421    7.0984   -2.4217 N.am    1  LIG1        0.0000
     16 C16         3.7640    6.1659   -2.2631 C.2     1  LIG1        0.0000
     17 O17         4.7114    6.0091   -3.0202 O.2     1  LIG1        0.0000
     18 C18         3.5085    5.3811   -0.9910 C.3     1  LIG1        0.0000
     19 C19         1.1183    4.3667   -1.1723 C.3     1  LIG1        0.0000
     20 H           3.2803   -0.4744   -0.0337 H       1  LIG1        0.0000
     21 H           1.2195   -1.6849   -0.0172 H       1  LIG1        0.0000
     22 H          -0.8710   -0.5254    0.0089 H       1  LIG1        0.0000
     23 H           1.7595    3.9994    1.8887 H       1  LIG1        0.0000
     24 H           0.2119    4.4135    1.5722 H       1  LIG1        0.0000
     25 H           0.8515    6.3727    0.7661 H       1  LIG1        0.0000
     26 H           2.3723    6.0283    1.2511 H       1  LIG1        0.0000
     27 H           0.8974    7.0679   -1.5719 H       1  LIG1        0.0000
     28 H           2.0731    7.5966   -0.5696 H       1  LIG1        0.0000
     29 H           2.6420    7.7542   -3.1700 H       1  LIG1        0.0000
     30 H           4.0322    5.7643   -0.2302 H       1  LIG1        0.0000
     31 H           3.7554    4.4201   -1.1150 H       1  LIG1        0.0000
     32 H           0.1897    4.6820   -1.3678 H       1  LIG1        0.0000
     33 H           1.4891    3.9026   -1.9767 H       1  LIG1        0.0000
@<TRIPOS>BOND
     1     1     2    3
     2     2     3    1
     3     3     4   ar
     4     4     5   ar
     5     5     6   ar
     6     6     7   ar
     7     7     8    1
     8     7     9   ar
     9     9     3   ar
    10     9    10    1
    11    10    11    1
    12    11    12    1
    13    12    13    1
    14    13    14    1
    15    14    15    1
    16    15    16   am
    17    16    17    2
    18    16    18    1
    19    18    13    1
    20    13    19    1
    21    19    10    1
    22     4    20    1
    23     5    21    1
    24     6    22    1
    25    11    23    1
    26    11    24    1
    27    12    25    1
    28    12    26    1
    29    14    27    1
    30    14    28    1
    31    15    29    1
    32    18    30    1
    33    18    31    1
    34    19    32    1
    35    19    33    1
