@<TRIPOS>MOLECULE
*****
 33 35 0 0 0
SMALL
USER_CHARGES

@<TRIPOS>ATOM
      1 N1          4.6616    2.7795   -0.0325 N.1     1  LIG1        0.0000
      2 C2          3.6851    2.1912   -0.0252 C.1     1  LIG1        0.0000
      3 C3          2.3829    1.4068   -0.0155 C.3     1  LIG1        0.0000
      4 C4          2.4087    0.0156   -0.0222 C.3     1  LIG1        0.0000
      5 C5          1.2071   -0.6850   -0.0128 C.3     1  LIG1        0.0000
      6 C6         -0.0114   -0.0146    0.0028 C.3     1  LIG1        0.0000
      7 C7         -0.0175    1.3764    0.0097 C.3     1  LIG1        0.0000
      8 Br8        -1.7272    2.3349    0.0310 Br      1  LIG1        0.0000
      9 C9          1.1737    2.0948    0.0009 C.3     1  LIG1        0.0000
     10 N10         1.1470    3.4940    0.0077 N.pl3   1  LIG1        0.0000
     11 C11         1.0987    4.3610   -1.1737 C.3     1  LIG1        0.0000
     12 C12         1.0603    5.7684   -0.6168 C.3     1  LIG1        0.0000
     13 C13         0.4340    5.6419    0.7639 C.3     1  LIG1        0.0000
     14 C14         0.6553    6.7731    1.7475 C.3     1  LIG1        0.0000
     15 N15        -0.4744    7.7035    1.6318 N.am    1  LIG1        0.0000
     16 C16        -1.5418    6.9746    1.1060 C.2     1  LIG1        0.0000
     17 O17        -2.6541    7.4167    0.8720 O.2     1  LIG1        0.0000
     18 C18        -1.0689    5.5496    0.8807 C.3     1  LIG1        0.0000
     19 C19         1.1422    4.3633    1.1844 C.3     1  LIG1        0.0000
     20 H           3.2803   -0.4744   -0.0337 H       1  LIG1        0.0000
     21 H           1.2195   -1.6849   -0.0172 H       1  LIG1        0.0000
     22 H          -0.8710   -0.5254    0.0089 H       1  LIG1        0.0000
     23 H           0.2792    4.1737   -1.7153 H       1  LIG1        0.0000
     24 H           1.9111    4.2286   -1.7416 H       1  LIG1        0.0000
     25 H           1.9851    6.1425   -0.5481 H       1  LIG1        0.0000
     26 H           0.5039    6.3601   -1.2001 H       1  LIG1        0.0000
     27 H           0.7014    6.4095    2.6779 H       1  LIG1        0.0000
     28 H           1.5089    7.2476    1.5324 H       1  LIG1        0.0000
     29 H          -0.4782    8.6718    1.8814 H       1  LIG1        0.0000
     30 H          -1.4634    5.1784    0.0401 H       1  LIG1        0.0000
     31 H          -1.3251    4.9692    1.6537 H       1  LIG1        0.0000
     32 H           2.0790    4.5639    1.4711 H       1  LIG1        0.0000
     33 H           0.6499    3.9256    1.9368 H       1  LIG1        0.0000
@<TRIPOS>BOND
     1     1     2    3
     2     2     3    1
     3     3     4   ar
     4     4     5   ar
     5     5     6   ar
     6     6     7   ar
     7     7     8    1
     8     7     9   ar
     9     9     3   ar
    10     9    10    1
    11    10    11    1
    12    11    12    1
    13    12    13    1
    14    13    14    1
    15    14    15    1
    16    15    16   am
    17    16    17    2
    18    16    18    1
    19    18    13    1
    20    13    19    1
    21    19    10    1
    22     4    20    1
    23     5    21    1
    24     6    22    1
    25    11    23    1
    26    11    24    1
    27    12    25    1
    28    12    26    1
    29    14    27    1
    30    14    28    1
    31    15    29    1
    32    18    30    1
    33    18    31    1
    34    19    32    1
    35    19    33    1
