@<TRIPOS>MOLECULE

  33   34
SMALL
USER_CHARGES
@<TRIPOS>ATOM
   1 C1          -2.3547     1.2179     0.0314 C.3          1    LIG   0.0000
   2 O2          -1.1948     2.0371     0.0243 O.3          1    LIG   0.0000
   3 C3          -0.0170     1.3770     0.0098 C.ar         1    LIG   0.0000
   4 C4          -0.0097    -0.0142     0.0035 C.ar         1    LIG   0.0000
   5 C5           1.2066    -0.6900    -0.0111 C.ar         1    LIG   0.0000
   6 C6           2.4001     0.0252    -0.0185 C.ar         1    LIG   0.0000
   7 C7           3.7074    -0.7506    -0.0340 C.3          1    LIG   0.0000
   8 C8           2.3843     1.4176    -0.0126 C.ar         1    LIG   0.0000
   9 C9           3.6122     2.1888    -0.0204 C.2          1    LIG   0.0000
  10 C10          3.6321     3.3768     0.5619 C.2          1    LIG   0.0000
  11 C11          4.8719     4.2598     0.5656 C.3          1    LIG   0.0000
  12 C12          6.1324     3.4891     0.2122 C.3          1    LIG   0.0000
  13 C13          5.8477     2.6993    -1.0547 C.3          1    LIG   0.0000
  14 C14          4.8435     1.6146    -0.7018 C.3          1    LIG   0.0000
  15 C15          1.1720     2.0993     0.0020 C.ar         1    LIG   0.0000
  16 H           -3.1708     1.7957     0.0421 H            1    LIG   0.0000
  17 H           -2.3629     0.6446    -0.7880 H            1    LIG   0.0000
  18 H           -2.3472     0.6365     0.8449 H            1    LIG   0.0000
  19 H           -0.8702    -0.5236     0.0093 H            1    LIG   0.0000
  20 H            1.2229    -1.6899    -0.0162 H            1    LIG   0.0000
  21 H            3.5128    -1.7315    -0.0363 H            1    LIG   0.0000
  22 H            4.2269    -0.5119    -0.8545 H            1    LIG   0.0000
  23 H            4.2422    -0.5187     0.7784 H            1    LIG   0.0000
  24 H            2.8038     3.7059     1.0153 H            1    LIG   0.0000
  25 H            4.9821     4.6550     1.4775 H            1    LIG   0.0000
  26 H            4.7459     4.9931    -0.1025 H            1    LIG   0.0000
  27 H            6.3707     2.8653     0.9566 H            1    LIG   0.0000
  28 H            6.8882     4.1248     0.0552 H            1    LIG   0.0000
  29 H            5.4661     3.3030    -1.7547 H            1    LIG   0.0000
  30 H            6.6916     2.2852    -1.3957 H            1    LIG   0.0000
  31 H            4.5620     1.1482    -1.5404 H            1    LIG   0.0000
  32 H            5.2786     0.9583    -0.0854 H            1    LIG   0.0000
  33 H            1.1552     3.0992     0.0068 H            1    LIG   0.0000
@<TRIPOS>BOND
   1        1        2 1
   2        2        3 1
   3        3        4 ar
   4        4        5 ar
   5        5        6 ar
   6        6        7 1
   7        6        8 ar
   8        8        9 1
   9        9       10 2
  10       10       11 1
  11       11       12 1
  12       12       13 1
  13       13       14 1
  14       14        9 1
  15        8       15 ar
  16       15        3 ar
  17        1       16 1
  18        1       17 1
  19        1       18 1
  20        4       19 1
  21        5       20 1
  22        7       21 1
  23        7       22 1
  24        7       23 1
  25       10       24 1
  26       11       25 1
  27       11       26 1
  28       12       27 1
  29       12       28 1
  30       13       29 1
  31       13       30 1
  32       14       31 1
  33       14       32 1
  34       15       33 1

@<TRIPOS>MOLECULE

  33   34
SMALL
USER_CHARGES
@<TRIPOS>ATOM
   1 C1          -2.3547     1.2179     0.0314 C.3          1    LIG   0.0000
   2 O2          -1.1948     2.0371     0.0243 O.3          1    LIG   0.0000
   3 C3          -0.0170     1.3770     0.0098 C.ar         1    LIG   0.0000
   4 C4          -0.0097    -0.0142     0.0035 C.ar         1    LIG   0.0000
   5 C5           1.2066    -0.6900    -0.0111 C.ar         1    LIG   0.0000
   6 C6           2.4001     0.0252    -0.0185 C.ar         1    LIG   0.0000
   7 C7           3.7074    -0.7506    -0.0340 C.3          1    LIG   0.0000
   8 C8           2.3843     1.4176    -0.0126 C.ar         1    LIG   0.0000
   9 C9           3.6122     2.1888    -0.0204 C.2          1    LIG   0.0000
  10 C10          4.1692     2.5274     1.1311 C.2          1    LIG   0.0000
  11 C11          5.4382     3.3646     1.2053 C.3          1    LIG   0.0000
  12 C12          6.1813     3.4078    -0.1189 C.3          1    LIG   0.0000
  13 C13          5.1746     3.7694    -1.1987 C.3          1    LIG   0.0000
  14 C14          4.2250     2.5928    -1.3513 C.3          1    LIG   0.0000
  15 C15          1.1720     2.0993     0.0020 C.ar         1    LIG   0.0000
  16 H           -3.1708     1.7957     0.0421 H            1    LIG   0.0000
  17 H           -2.3629     0.6446    -0.7880 H            1    LIG   0.0000
  18 H           -2.3472     0.6365     0.8449 H            1    LIG   0.0000
  19 H           -0.8702    -0.5236     0.0093 H            1    LIG   0.0000
  20 H            1.2229    -1.6899    -0.0162 H            1    LIG   0.0000
  21 H            3.5128    -1.7315    -0.0363 H            1    LIG   0.0000
  22 H            4.2269    -0.5119    -0.8545 H            1    LIG   0.0000
  23 H            4.2422    -0.5187     0.7784 H            1    LIG   0.0000
  24 H            3.7415     2.2227     1.9821 H            1    LIG   0.0000
  25 H            6.0416     2.9723     1.8996 H            1    LIG   0.0000
  26 H            5.1924     4.2981     1.4664 H            1    LIG   0.0000
  27 H            6.5838     2.5133    -0.3136 H            1    LIG   0.0000
  28 H            6.9043     4.0977    -0.0819 H            1    LIG   0.0000
  29 H            4.6649     4.5868    -0.9302 H            1    LIG   0.0000
  30 H            5.6477     3.9405    -2.0629 H            1    LIG   0.0000
  31 H            3.4917     2.8477    -1.9817 H            1    LIG   0.0000
  32 H            4.7302     1.8148    -1.7249 H            1    LIG   0.0000
  33 H            1.1552     3.0992     0.0068 H            1    LIG   0.0000
@<TRIPOS>BOND
   1        1        2 1
   2        2        3 1
   3        3        4 ar
   4        4        5 ar
   5        5        6 ar
   6        6        7 1
   7        6        8 ar
   8        8        9 1
   9        9       10 2
  10       10       11 1
  11       11       12 1
  12       12       13 1
  13       13       14 1
  14       14        9 1
  15        8       15 ar
  16       15        3 ar
  17        1       16 1
  18        1       17 1
  19        1       18 1
  20        4       19 1
  21        5       20 1
  22        7       21 1
  23        7       22 1
  24        7       23 1
  25       10       24 1
  26       11       25 1
  27       11       26 1
  28       12       27 1
  29       12       28 1
  30       13       29 1
  31       13       30 1
  32       14       31 1
  33       14       32 1
  34       15       33 1

@<TRIPOS>MOLECULE

  33   34
SMALL
USER_CHARGES
@<TRIPOS>ATOM
   1 C1          -2.3547     1.2179     0.0314 C.3          1    LIG   0.0000
   2 O2          -1.1948     2.0371     0.0243 O.3          1    LIG   0.0000
   3 C3          -0.0170     1.3770     0.0098 C.ar         1    LIG   0.0000
   4 C4          -0.0097    -0.0142     0.0035 C.ar         1    LIG   0.0000
   5 C5           1.2066    -0.6900    -0.0111 C.ar         1    LIG   0.0000
   6 C6           2.4001     0.0252    -0.0185 C.ar         1    LIG   0.0000
   7 C7           3.7074    -0.7506    -0.0340 C.3          1    LIG   0.0000
   8 C8           2.3843     1.4176    -0.0126 C.ar         1    LIG   0.0000
   9 C9           3.6122     2.1888    -0.0204 C.2          1    LIG   0.0000
  10 C10          4.1485     2.5370    -1.1787 C.2          1    LIG   0.0000
  11 C11          5.4530     3.3162    -1.2692 C.3          1    LIG   0.0000
  12 C12          5.8266     3.9743     0.0480 C.3          1    LIG   0.0000
  13 C13          5.7250     2.9167     1.1348 C.3          1    LIG   0.0000
  14 C14          4.2541     2.5730     1.3027 C.3          1    LIG   0.0000
  15 C15          1.1720     2.0993     0.0020 C.ar         1    LIG   0.0000
  16 H           -3.1708     1.7957     0.0421 H            1    LIG   0.0000
  17 H           -2.3629     0.6446    -0.7880 H            1    LIG   0.0000
  18 H           -2.3472     0.6365     0.8449 H            1    LIG   0.0000
  19 H           -0.8702    -0.5236     0.0093 H            1    LIG   0.0000
  20 H            1.2229    -1.6899    -0.0162 H            1    LIG   0.0000
  21 H            3.5128    -1.7315    -0.0363 H            1    LIG   0.0000
  22 H            4.2269    -0.5119    -0.8545 H            1    LIG   0.0000
  23 H            4.2422    -0.5187     0.7784 H            1    LIG   0.0000
  24 H            3.6807     2.2793    -2.0241 H            1    LIG   0.0000
  25 H            5.3553     4.0262    -1.9666 H            1    LIG   0.0000
  26 H            6.1848     2.6879    -1.5333 H            1    LIG   0.0000
  27 H            5.1973     4.7264     0.2441 H            1    LIG   0.0000
  28 H            6.7616     4.3258     0.0006 H            1    LIG   0.0000
  29 H            6.2375     2.1011     0.8663 H            1    LIG   0.0000
  30 H            6.0923     3.2735     1.9937 H            1    LIG   0.0000
  31 H            4.1712     1.8054     1.9382 H            1    LIG   0.0000
  32 H            3.7761     3.3680     1.6761 H            1    LIG   0.0000
  33 H            1.1552     3.0992     0.0068 H            1    LIG   0.0000
@<TRIPOS>BOND
   1        1        2 1
   2        2        3 1
   3        3        4 ar
   4        4        5 ar
   5        5        6 ar
   6        6        7 1
   7        6        8 ar
   8        8        9 1
   9        9       10 2
  10       10       11 1
  11       11       12 1
  12       12       13 1
  13       13       14 1
  14       14        9 1
  15        8       15 ar
  16       15        3 ar
  17        1       16 1
  18        1       17 1
  19        1       18 1
  20        4       19 1
  21        5       20 1
  22        7       21 1
  23        7       22 1
  24        7       23 1
  25       10       24 1
  26       11       25 1
  27       11       26 1
  28       12       27 1
  29       12       28 1
  30       13       29 1
  31       13       30 1
  32       14       31 1
  33       14       32 1
  34       15       33 1

@<TRIPOS>MOLECULE

  33   34
SMALL
USER_CHARGES
@<TRIPOS>ATOM
   1 C1          -2.3547     1.2179     0.0314 C.3          1    LIG   0.0000
   2 O2          -1.1948     2.0371     0.0243 O.3          1    LIG   0.0000
   3 C3          -0.0170     1.3770     0.0098 C.ar         1    LIG   0.0000
   4 C4          -0.0097    -0.0142     0.0035 C.ar         1    LIG   0.0000
   5 C5           1.2066    -0.6900    -0.0111 C.ar         1    LIG   0.0000
   6 C6           2.4001     0.0252    -0.0185 C.ar         1    LIG   0.0000
   7 C7           3.7074    -0.7506    -0.0340 C.3          1    LIG   0.0000
   8 C8           2.3843     1.4176    -0.0126 C.ar         1    LIG   0.0000
   9 C9           3.6120     2.1887    -0.0204 C.2          1    LIG   0.0000
  10 C10          3.6153     3.3786    -0.5934 C.2          1    LIG   0.0000
  11 C11          4.8645     4.2492    -0.6074 C.3          1    LIG   0.0000
  12 C12          6.1259     3.4632    -0.3011 C.3          1    LIG   0.0000
  13 C13          5.8598     2.6865     0.9760 C.3          1    LIG   0.0000
  14 C14          4.8519     1.6033     0.6337 C.3          1    LIG   0.0000
  15 C15          1.1720     2.0993     0.0020 C.ar         1    LIG   0.0000
  16 H           -3.1708     1.7957     0.0421 H            1    LIG   0.0000
  17 H           -2.3629     0.6446    -0.7880 H            1    LIG   0.0000
  18 H           -2.3472     0.6365     0.8449 H            1    LIG   0.0000
  19 H           -0.8702    -0.5236     0.0093 H            1    LIG   0.0000
  20 H            1.2229    -1.6899    -0.0162 H            1    LIG   0.0000
  21 H            3.5128    -1.7315    -0.0363 H            1    LIG   0.0000
  22 H            4.2269    -0.5119    -0.8545 H            1    LIG   0.0000
  23 H            4.2422    -0.5187     0.7784 H            1    LIG   0.0000
  24 H            2.7795     3.7149    -1.0274 H            1    LIG   0.0000
  25 H            4.7610     4.9692     0.0788 H            1    LIG   0.0000
  26 H            4.9567     4.6628    -1.5132 H            1    LIG   0.0000
  27 H            6.8968     4.0867    -0.1706 H            1    LIG   0.0000
  28 H            6.3297     2.8336    -1.0508 H            1    LIG   0.0000
  29 H            6.7073     2.2741     1.3102 H            1    LIG   0.0000
  30 H            5.4862     3.2946     1.6764 H            1    LIG   0.0000
  31 H            5.2752     0.9518     0.0042 H            1    LIG   0.0000
  32 H            4.5846     1.1303     1.4732 H            1    LIG   0.0000
  33 H            1.1552     3.0992     0.0068 H            1    LIG   0.0000
@<TRIPOS>BOND
   1        1        2 1
   2        2        3 1
   3        3        4 ar
   4        4        5 ar
   5        5        6 ar
   6        6        7 1
   7        6        8 ar
   8        8        9 1
   9        9       10 2
  10       10       11 1
  11       11       12 1
  12       12       13 1
  13       13       14 1
  14       14        9 1
  15        8       15 ar
  16       15        3 ar
  17        1       16 1
  18        1       17 1
  19        1       18 1
  20        4       19 1
  21        5       20 1
  22        7       21 1
  23        7       22 1
  24        7       23 1
  25       10       24 1
  26       11       25 1
  27       11       26 1
  28       12       27 1
  29       12       28 1
  30       13       29 1
  31       13       30 1
  32       14       31 1
  33       14       32 1
  34       15       33 1

@<TRIPOS>MOLECULE

  33   34
SMALL
USER_CHARGES
@<TRIPOS>ATOM
   1 C1          -1.1015     3.4540     0.0305 C.3          1    LIG   0.0000
   2 O2          -1.1948     2.0371     0.0243 O.3          1    LIG   0.0000
   3 C3          -0.0170     1.3770     0.0098 C.ar         1    LIG   0.0000
   4 C4          -0.0097    -0.0142     0.0035 C.ar         1    LIG   0.0000
   5 C5           1.2066    -0.6900    -0.0111 C.ar         1    LIG   0.0000
   6 C6           2.4001     0.0252    -0.0185 C.ar         1    LIG   0.0000
   7 C7           3.7074    -0.7506    -0.0340 C.3          1    LIG   0.0000
   8 C8           2.3843     1.4176    -0.0126 C.ar         1    LIG   0.0000
   9 C9           3.6122     2.1888    -0.0204 C.2          1    LIG   0.0000
  10 C10          3.6321     3.3768     0.5619 C.2          1    LIG   0.0000
  11 C11          4.8719     4.2598     0.5656 C.3          1    LIG   0.0000
  12 C12          6.1324     3.4891     0.2122 C.3          1    LIG   0.0000
  13 C13          5.8477     2.6993    -1.0547 C.3          1    LIG   0.0000
  14 C14          4.8435     1.6146    -0.7018 C.3          1    LIG   0.0000
  15 C15          1.1720     2.0993     0.0020 C.ar         1    LIG   0.0000
  16 H           -2.0203     3.8486     0.0413 H            1    LIG   0.0000
  17 H           -0.6014     3.7516     0.8438 H            1    LIG   0.0000
  18 H           -0.6170     3.7597    -0.7891 H            1    LIG   0.0000
  19 H           -0.8702    -0.5236     0.0093 H            1    LIG   0.0000
  20 H            1.2229    -1.6899    -0.0162 H            1    LIG   0.0000
  21 H            3.5128    -1.7315    -0.0363 H            1    LIG   0.0000
  22 H            4.2269    -0.5119    -0.8545 H            1    LIG   0.0000
  23 H            4.2422    -0.5187     0.7784 H            1    LIG   0.0000
  24 H            2.8038     3.7059     1.0153 H            1    LIG   0.0000
  25 H            4.9821     4.6550     1.4775 H            1    LIG   0.0000
  26 H            4.7459     4.9931    -0.1025 H            1    LIG   0.0000
  27 H            6.3707     2.8653     0.9566 H            1    LIG   0.0000
  28 H            6.8882     4.1248     0.0552 H            1    LIG   0.0000
  29 H            5.4661     3.3030    -1.7547 H            1    LIG   0.0000
  30 H            6.6916     2.2852    -1.3957 H            1    LIG   0.0000
  31 H            4.5620     1.1482    -1.5404 H            1    LIG   0.0000
  32 H            5.2786     0.9583    -0.0854 H            1    LIG   0.0000
  33 H            1.1552     3.0992     0.0068 H            1    LIG   0.0000
@<TRIPOS>BOND
   1        1        2 1
   2        2        3 1
   3        3        4 ar
   4        4        5 ar
   5        5        6 ar
   6        6        7 1
   7        6        8 ar
   8        8        9 1
   9        9       10 2
  10       10       11 1
  11       11       12 1
  12       12       13 1
  13       13       14 1
  14       14        9 1
  15        8       15 ar
  16       15        3 ar
  17        1       16 1
  18        1       17 1
  19        1       18 1
  20        4       19 1
  21        5       20 1
  22        7       21 1
  23        7       22 1
  24        7       23 1
  25       10       24 1
  26       11       25 1
  27       11       26 1
  28       12       27 1
  29       12       28 1
  30       13       29 1
  31       13       30 1
  32       14       31 1
  33       14       32 1
  34       15       33 1

@<TRIPOS>MOLECULE

  33   34
SMALL
USER_CHARGES
@<TRIPOS>ATOM
   1 C1          -1.1015     3.4540     0.0305 C.3          1    LIG   0.0000
   2 O2          -1.1948     2.0371     0.0243 O.3          1    LIG   0.0000
   3 C3          -0.0170     1.3770     0.0098 C.ar         1    LIG   0.0000
   4 C4          -0.0097    -0.0142     0.0035 C.ar         1    LIG   0.0000
   5 C5           1.2066    -0.6900    -0.0111 C.ar         1    LIG   0.0000
   6 C6           2.4001     0.0252    -0.0185 C.ar         1    LIG   0.0000
   7 C7           3.7074    -0.7506    -0.0340 C.3          1    LIG   0.0000
   8 C8           2.3843     1.4176    -0.0126 C.ar         1    LIG   0.0000
   9 C9           3.6122     2.1888    -0.0204 C.2          1    LIG   0.0000
  10 C10          4.1692     2.5274     1.1311 C.2          1    LIG   0.0000
  11 C11          5.4382     3.3646     1.2053 C.3          1    LIG   0.0000
  12 C12          6.1813     3.4078    -0.1189 C.3          1    LIG   0.0000
  13 C13          5.1746     3.7694    -1.1987 C.3          1    LIG   0.0000
  14 C14          4.2250     2.5928    -1.3513 C.3          1    LIG   0.0000
  15 C15          1.1720     2.0993     0.0020 C.ar         1    LIG   0.0000
  16 H           -2.0203     3.8486     0.0413 H            1    LIG   0.0000
  17 H           -0.6014     3.7516     0.8438 H            1    LIG   0.0000
  18 H           -0.6170     3.7597    -0.7891 H            1    LIG   0.0000
  19 H           -0.8702    -0.5236     0.0093 H            1    LIG   0.0000
  20 H            1.2229    -1.6899    -0.0162 H            1    LIG   0.0000
  21 H            3.5128    -1.7315    -0.0363 H            1    LIG   0.0000
  22 H            4.2269    -0.5119    -0.8545 H            1    LIG   0.0000
  23 H            4.2422    -0.5187     0.7784 H            1    LIG   0.0000
  24 H            3.7415     2.2227     1.9821 H            1    LIG   0.0000
  25 H            6.0416     2.9723     1.8996 H            1    LIG   0.0000
  26 H            5.1924     4.2981     1.4664 H            1    LIG   0.0000
  27 H            6.5838     2.5133    -0.3136 H            1    LIG   0.0000
  28 H            6.9043     4.0977    -0.0819 H            1    LIG   0.0000
  29 H            4.6649     4.5868    -0.9302 H            1    LIG   0.0000
  30 H            5.6477     3.9405    -2.0629 H            1    LIG   0.0000
  31 H            3.4917     2.8477    -1.9817 H            1    LIG   0.0000
  32 H            4.7302     1.8148    -1.7249 H            1    LIG   0.0000
  33 H            1.1552     3.0992     0.0068 H            1    LIG   0.0000
@<TRIPOS>BOND
   1        1        2 1
   2        2        3 1
   3        3        4 ar
   4        4        5 ar
   5        5        6 ar
   6        6        7 1
   7        6        8 ar
   8        8        9 1
   9        9       10 2
  10       10       11 1
  11       11       12 1
  12       12       13 1
  13       13       14 1
  14       14        9 1
  15        8       15 ar
  16       15        3 ar
  17        1       16 1
  18        1       17 1
  19        1       18 1
  20        4       19 1
  21        5       20 1
  22        7       21 1
  23        7       22 1
  24        7       23 1
  25       10       24 1
  26       11       25 1
  27       11       26 1
  28       12       27 1
  29       12       28 1
  30       13       29 1
  31       13       30 1
  32       14       31 1
  33       14       32 1
  34       15       33 1

@<TRIPOS>MOLECULE

  33   34
SMALL
USER_CHARGES
@<TRIPOS>ATOM
   1 C1          -1.1015     3.4540     0.0305 C.3          1    LIG   0.0000
   2 O2          -1.1948     2.0371     0.0243 O.3          1    LIG   0.0000
   3 C3          -0.0170     1.3770     0.0098 C.ar         1    LIG   0.0000
   4 C4          -0.0097    -0.0142     0.0035 C.ar         1    LIG   0.0000
   5 C5           1.2066    -0.6900    -0.0111 C.ar         1    LIG   0.0000
   6 C6           2.4001     0.0252    -0.0185 C.ar         1    LIG   0.0000
   7 C7           3.7074    -0.7506    -0.0340 C.3          1    LIG   0.0000
   8 C8           2.3843     1.4176    -0.0126 C.ar         1    LIG   0.0000
   9 C9           3.6122     2.1888    -0.0204 C.2          1    LIG   0.0000
  10 C10          4.1485     2.5370    -1.1787 C.2          1    LIG   0.0000
  11 C11          5.4530     3.3162    -1.2692 C.3          1    LIG   0.0000
  12 C12          5.8266     3.9743     0.0480 C.3          1    LIG   0.0000
  13 C13          5.7250     2.9167     1.1348 C.3          1    LIG   0.0000
  14 C14          4.2541     2.5730     1.3027 C.3          1    LIG   0.0000
  15 C15          1.1720     2.0993     0.0020 C.ar         1    LIG   0.0000
  16 H           -2.0203     3.8486     0.0413 H            1    LIG   0.0000
  17 H           -0.6014     3.7516     0.8438 H            1    LIG   0.0000
  18 H           -0.6170     3.7597    -0.7891 H            1    LIG   0.0000
  19 H           -0.8702    -0.5236     0.0093 H            1    LIG   0.0000
  20 H            1.2229    -1.6899    -0.0162 H            1    LIG   0.0000
  21 H            3.5128    -1.7315    -0.0363 H            1    LIG   0.0000
  22 H            4.2269    -0.5119    -0.8545 H            1    LIG   0.0000
  23 H            4.2422    -0.5187     0.7784 H            1    LIG   0.0000
  24 H            3.6807     2.2793    -2.0241 H            1    LIG   0.0000
  25 H            5.3553     4.0262    -1.9666 H            1    LIG   0.0000
  26 H            6.1848     2.6879    -1.5333 H            1    LIG   0.0000
  27 H            5.1973     4.7264     0.2441 H            1    LIG   0.0000
  28 H            6.7616     4.3258     0.0006 H            1    LIG   0.0000
  29 H            6.2375     2.1011     0.8663 H            1    LIG   0.0000
  30 H            6.0923     3.2735     1.9937 H            1    LIG   0.0000
  31 H            4.1712     1.8054     1.9382 H            1    LIG   0.0000
  32 H            3.7761     3.3680     1.6761 H            1    LIG   0.0000
  33 H            1.1552     3.0992     0.0068 H            1    LIG   0.0000
@<TRIPOS>BOND
   1        1        2 1
   2        2        3 1
   3        3        4 ar
   4        4        5 ar
   5        5        6 ar
   6        6        7 1
   7        6        8 ar
   8        8        9 1
   9        9       10 2
  10       10       11 1
  11       11       12 1
  12       12       13 1
  13       13       14 1
  14       14        9 1
  15        8       15 ar
  16       15        3 ar
  17        1       16 1
  18        1       17 1
  19        1       18 1
  20        4       19 1
  21        5       20 1
  22        7       21 1
  23        7       22 1
  24        7       23 1
  25       10       24 1
  26       11       25 1
  27       11       26 1
  28       12       27 1
  29       12       28 1
  30       13       29 1
  31       13       30 1
  32       14       31 1
  33       14       32 1
  34       15       33 1

@<TRIPOS>MOLECULE

  33   34
SMALL
USER_CHARGES
@<TRIPOS>ATOM
   1 C1          -1.1015     3.4540     0.0305 C.3          1    LIG   0.0000
   2 O2          -1.1948     2.0371     0.0243 O.3          1    LIG   0.0000
   3 C3          -0.0170     1.3770     0.0098 C.ar         1    LIG   0.0000
   4 C4          -0.0097    -0.0142     0.0035 C.ar         1    LIG   0.0000
   5 C5           1.2066    -0.6900    -0.0111 C.ar         1    LIG   0.0000
   6 C6           2.4001     0.0252    -0.0185 C.ar         1    LIG   0.0000
   7 C7           3.7074    -0.7506    -0.0340 C.3          1    LIG   0.0000
   8 C8           2.3843     1.4176    -0.0126 C.ar         1    LIG   0.0000
   9 C9           3.6120     2.1887    -0.0204 C.2          1    LIG   0.0000
  10 C10          3.6153     3.3786    -0.5934 C.2          1    LIG   0.0000
  11 C11          4.8645     4.2492    -0.6074 C.3          1    LIG   0.0000
  12 C12          6.1259     3.4632    -0.3011 C.3          1    LIG   0.0000
  13 C13          5.8598     2.6865     0.9760 C.3          1    LIG   0.0000
  14 C14          4.8519     1.6033     0.6337 C.3          1    LIG   0.0000
  15 C15          1.1720     2.0993     0.0020 C.ar         1    LIG   0.0000
  16 H           -2.0203     3.8486     0.0413 H            1    LIG   0.0000
  17 H           -0.6014     3.7516     0.8438 H            1    LIG   0.0000
  18 H           -0.6170     3.7597    -0.7891 H            1    LIG   0.0000
  19 H           -0.8702    -0.5236     0.0093 H            1    LIG   0.0000
  20 H            1.2229    -1.6899    -0.0162 H            1    LIG   0.0000
  21 H            3.5128    -1.7315    -0.0363 H            1    LIG   0.0000
  22 H            4.2269    -0.5119    -0.8545 H            1    LIG   0.0000
  23 H            4.2422    -0.5187     0.7784 H            1    LIG   0.0000
  24 H            2.7795     3.7149    -1.0274 H            1    LIG   0.0000
  25 H            4.7610     4.9692     0.0788 H            1    LIG   0.0000
  26 H            4.9567     4.6628    -1.5132 H            1    LIG   0.0000
  27 H            6.8968     4.0867    -0.1706 H            1    LIG   0.0000
  28 H            6.3297     2.8336    -1.0508 H            1    LIG   0.0000
  29 H            6.7073     2.2741     1.3102 H            1    LIG   0.0000
  30 H            5.4862     3.2946     1.6764 H            1    LIG   0.0000
  31 H            5.2752     0.9518     0.0042 H            1    LIG   0.0000
  32 H            4.5846     1.1303     1.4732 H            1    LIG   0.0000
  33 H            1.1552     3.0992     0.0068 H            1    LIG   0.0000
@<TRIPOS>BOND
   1        1        2 1
   2        2        3 1
   3        3        4 ar
   4        4        5 ar
   5        5        6 ar
   6        6        7 1
   7        6        8 ar
   8        8        9 1
   9        9       10 2
  10       10       11 1
  11       11       12 1
  12       12       13 1
  13       13       14 1
  14       14        9 1
  15        8       15 ar
  16       15        3 ar
  17        1       16 1
  18        1       17 1
  19        1       18 1
  20        4       19 1
  21        5       20 1
  22        7       21 1
  23        7       22 1
  24        7       23 1
  25       10       24 1
  26       11       25 1
  27       11       26 1
  28       12       27 1
  29       12       28 1
  30       13       29 1
  31       13       30 1
  32       14       31 1
  33       14       32 1
  34       15       33 1

@<TRIPOS>MOLECULE

  33   34
SMALL
USER_CHARGES
@<TRIPOS>ATOM
   1 C1          -1.1351     3.3844     0.4689 C.3          1    LIG   0.0000
   2 O2          -1.1948     2.0371     0.0243 O.3          1    LIG   0.0000
   3 C3          -0.0170     1.3770     0.0098 C.ar         1    LIG   0.0000
   4 C4          -0.0097    -0.0142     0.0035 C.ar         1    LIG   0.0000
   5 C5           1.2066    -0.6900    -0.0111 C.ar         1    LIG   0.0000
   6 C6           2.4001     0.0252    -0.0185 C.ar         1    LIG   0.0000
   7 C7           3.7074    -0.7506    -0.0340 C.3          1    LIG   0.0000
   8 C8           2.3843     1.4176    -0.0126 C.ar         1    LIG   0.0000
   9 C9           3.6129     2.1893    -0.0204 C.2          1    LIG   0.0000
  10 C10          4.2136     2.5556     1.1011 C.2          1    LIG   0.0000
  11 C11          5.5098     3.3500     1.0690 C.3          1    LIG   0.0000
  12 C12          6.4342     2.8717    -0.0487 C.3          1    LIG   0.0000
  13 C13          5.7420     2.4305    -1.3378 C.3          1    LIG   0.0000
  14 C14          4.2241     2.5755    -1.3615 C.3          1    LIG   0.0000
  15 C15          1.1720     2.0993     0.0020 C.ar         1    LIG   0.0000
  16 H           -2.0511     3.7846     0.4437 H            1    LIG   0.0000
  17 H           -0.7852     3.4112     1.4053 H            1    LIG   0.0000
  18 H           -0.5268     3.9061    -0.1293 H            1    LIG   0.0000
  19 H           -0.8702    -0.5236     0.0093 H            1    LIG   0.0000
  20 H            1.2229    -1.6899    -0.0162 H            1    LIG   0.0000
  21 H            3.5128    -1.7315    -0.0363 H            1    LIG   0.0000
  22 H            4.2269    -0.5119    -0.8545 H            1    LIG   0.0000
  23 H            4.2422    -0.5187     0.7784 H            1    LIG   0.0000
  24 H            3.8094     2.3064     1.9812 H            1    LIG   0.0000
  25 H            5.9781     3.2425     1.9460 H            1    LIG   0.0000
  26 H            5.2951     4.3155     0.9219 H            1    LIG   0.0000
  27 H            6.9603     2.0955     0.2987 H            1    LIG   0.0000
  28 H            7.0561     3.6214    -0.2750 H            1    LIG   0.0000
  29 H            6.1139     2.9773    -2.0880 H            1    LIG   0.0000
  30 H            5.9601     1.4662    -1.4882 H            1    LIG   0.0000
  31 H            3.9904     3.5263    -1.5647 H            1    LIG   0.0000
  32 H            3.8507     1.9809    -2.0735 H            1    LIG   0.0000
  33 H            1.1552     3.0992     0.0068 H            1    LIG   0.0000
@<TRIPOS>BOND
   1        1        2 1
   2        2        3 1
   3        3        4 ar
   4        4        5 ar
   5        5        6 ar
   6        6        7 1
   7        6        8 ar
   8        8        9 1
   9        9       10 2
  10       10       11 1
  11       11       12 1
  12       12       13 1
  13       13       14 1
  14       14        9 1
  15        8       15 ar
  16       15        3 ar
  17        1       16 1
  18        1       17 1
  19        1       18 1
  20        4       19 1
  21        5       20 1
  22        7       21 1
  23        7       22 1
  24        7       23 1
  25       10       24 1
  26       11       25 1
  27       11       26 1
  28       12       27 1
  29       12       28 1
  30       13       29 1
  31       13       30 1
  32       14       31 1
  33       14       32 1
  34       15       33 1

@<TRIPOS>MOLECULE

  33   34
SMALL
USER_CHARGES
@<TRIPOS>ATOM
   1 C1          -1.1351     3.3844     0.4689 C.3          1    LIG   0.0000
   2 O2          -1.1948     2.0371     0.0243 O.3          1    LIG   0.0000
   3 C3          -0.0170     1.3770     0.0098 C.ar         1    LIG   0.0000
   4 C4          -0.0097    -0.0142     0.0035 C.ar         1    LIG   0.0000
   5 C5           1.2066    -0.6900    -0.0111 C.ar         1    LIG   0.0000
   6 C6           2.4001     0.0252    -0.0185 C.ar         1    LIG   0.0000
   7 C7           3.7074    -0.7506    -0.0340 C.3          1    LIG   0.0000
   8 C8           2.3843     1.4176    -0.0126 C.ar         1    LIG   0.0000
   9 C9           3.6129     2.1893    -0.0204 C.2          1    LIG   0.0000
  10 C10          4.1935     2.5649    -1.1493 C.2          1    LIG   0.0000
  11 C11          5.4721     3.3878    -1.1334 C.3          1    LIG   0.0000
  12 C12          5.4528     4.4345    -0.0214 C.3          1    LIG   0.0000
  13 C13          4.7665     4.0099     1.2764 C.3          1    LIG   0.0000
  14 C14          4.2383     2.5798     1.3129 C.3          1    LIG   0.0000
  15 C15          1.1720     2.0993     0.0020 C.ar         1    LIG   0.0000
  16 H           -2.0511     3.7846     0.4437 H            1    LIG   0.0000
  17 H           -0.7852     3.4112     1.4053 H            1    LIG   0.0000
  18 H           -0.5268     3.9061    -0.1293 H            1    LIG   0.0000
  19 H           -0.8702    -0.5236     0.0093 H            1    LIG   0.0000
  20 H            1.2229    -1.6899    -0.0162 H            1    LIG   0.0000
  21 H            3.5128    -1.7315    -0.0363 H            1    LIG   0.0000
  22 H            4.2269    -0.5119    -0.8545 H            1    LIG   0.0000
  23 H            4.2422    -0.5187     0.7784 H            1    LIG   0.0000
  24 H            3.7856     2.3040    -2.0243 H            1    LIG   0.0000
  25 H            5.5707     3.8514    -2.0140 H            1    LIG   0.0000
  26 H            6.2500     2.7760    -0.9899 H            1    LIG   0.0000
  27 H            4.9789     5.2435    -0.3692 H            1    LIG   0.0000
  28 H            6.4002     4.6705     0.1949 H            1    LIG   0.0000
  29 H            5.4273     4.1117     2.0200 H            1    LIG   0.0000
  30 H            3.9939     4.6260     1.4303 H            1    LIG   0.0000
  31 H            4.9952     1.9575     1.5129 H            1    LIG   0.0000
  32 H            3.5470     2.5056     2.0317 H            1    LIG   0.0000
  33 H            1.1552     3.0992     0.0068 H            1    LIG   0.0000
@<TRIPOS>BOND
   1        1        2 1
   2        2        3 1
   3        3        4 ar
   4        4        5 ar
   5        5        6 ar
   6        6        7 1
   7        6        8 ar
   8        8        9 1
   9        9       10 2
  10       10       11 1
  11       11       12 1
  12       12       13 1
  13       13       14 1
  14       14        9 1
  15        8       15 ar
  16       15        3 ar
  17        1       16 1
  18        1       17 1
  19        1       18 1
  20        4       19 1
  21        5       20 1
  22        7       21 1
  23        7       22 1
  24        7       23 1
  25       10       24 1
  26       11       25 1
  27       11       26 1
  28       12       27 1
  29       12       28 1
  30       13       29 1
  31       13       30 1
  32       14       31 1
  33       14       32 1
  34       15       33 1

@<TRIPOS>MOLECULE

  33   34
SMALL
USER_CHARGES
@<TRIPOS>ATOM
   1 C1          -1.1654     3.3519    -0.5111 C.3          1    LIG   0.0000
   2 O2          -1.1948     2.0371     0.0243 O.3          1    LIG   0.0000
   3 C3          -0.0170     1.3770     0.0098 C.ar         1    LIG   0.0000
   4 C4          -0.0097    -0.0142     0.0035 C.ar         1    LIG   0.0000
   5 C5           1.2066    -0.6900    -0.0111 C.ar         1    LIG   0.0000
   6 C6           2.4001     0.0252    -0.0185 C.ar         1    LIG   0.0000
   7 C7           3.7074    -0.7506    -0.0340 C.3          1    LIG   0.0000
   8 C8           2.3843     1.4176    -0.0126 C.ar         1    LIG   0.0000
   9 C9           3.6116     2.1885    -0.0203 C.2          1    LIG   0.0000
  10 C10          4.1275     2.5239    -1.1878 C.2          1    LIG   0.0000
  11 C11          5.4348     3.2978    -1.2003 C.3          1    LIG   0.0000
  12 C12          6.3564     2.6361    -0.1881 C.3          1    LIG   0.0000
  13 C13          5.7955     2.6959     1.2294 C.3          1    LIG   0.0000
  14 C14          4.2776     2.5717     1.2992 C.3          1    LIG   0.0000
  15 C15          1.1720     2.0993     0.0020 C.ar         1    LIG   0.0000
  16 H           -2.0790     3.7549    -0.4559 H            1    LIG   0.0000
  17 H           -0.5224     3.9108     0.0127 H            1    LIG   0.0000
  18 H           -0.8740     3.3161    -1.4670 H            1    LIG   0.0000
  19 H           -0.8702    -0.5236     0.0093 H            1    LIG   0.0000
  20 H            1.2229    -1.6899    -0.0162 H            1    LIG   0.0000
  21 H            3.5128    -1.7315    -0.0363 H            1    LIG   0.0000
  22 H            4.2269    -0.5119    -0.8545 H            1    LIG   0.0000
  23 H            4.2422    -0.5187     0.7784 H            1    LIG   0.0000
  24 H            3.6701     2.2752    -2.0416 H            1    LIG   0.0000
  25 H            5.2717     4.2505    -0.9441 H            1    LIG   0.0000
  26 H            5.8450     3.2632    -2.1116 H            1    LIG   0.0000
  27 H            7.2405     3.1032    -0.2044 H            1    LIG   0.0000
  28 H            6.4810     1.6777    -0.4447 H            1    LIG   0.0000
  29 H            6.1972     1.9486     1.7587 H            1    LIG   0.0000
  30 H            6.0587     3.5711     1.6354 H            1    LIG   0.0000
  31 H            4.0525     1.8720     1.9773 H            1    LIG   0.0000
  32 H            3.9054     3.4522     1.5926 H            1    LIG   0.0000
  33 H            1.1552     3.0992     0.0068 H            1    LIG   0.0000
@<TRIPOS>BOND
   1        1        2 1
   2        2        3 1
   3        3        4 ar
   4        4        5 ar
   5        5        6 ar
   6        6        7 1
   7        6        8 ar
   8        8        9 1
   9        9       10 2
  10       10       11 1
  11       11       12 1
  12       12       13 1
  13       13       14 1
  14       14        9 1
  15        8       15 ar
  16       15        3 ar
  17        1       16 1
  18        1       17 1
  19        1       18 1
  20        4       19 1
  21        5       20 1
  22        7       21 1
  23        7       22 1
  24        7       23 1
  25       10       24 1
  26       11       25 1
  27       11       26 1
  28       12       27 1
  29       12       28 1
  30       13       29 1
  31       13       30 1
  32       14       31 1
  33       14       32 1
  34       15       33 1

