@<TRIPOS>MOLECULE
*****
 33 34 0 0 0
SMALL
USER_CHARGES

@<TRIPOS>ATOM
      1 C1         -1.1351    3.3844    0.4689 C.3     1  LIG1        0.0000
      2 O2         -1.1948    2.0371    0.0243 O.3     1  LIG1        0.0000
      3 C3         -0.0170    1.3770    0.0098 C.ar    1  LIG1        0.0000
      4 C4         -0.0097   -0.0142    0.0035 C.ar    1  LIG1        0.0000
      5 C5          1.2066   -0.6900   -0.0111 C.ar    1  LIG1        0.0000
      6 C6          2.4001    0.0252   -0.0185 C.ar    1  LIG1        0.0000
      7 C7          3.7074   -0.7506   -0.0340 C.3     1  LIG1        0.0000
      8 C8          2.3843    1.4176   -0.0126 C.ar    1  LIG1        0.0000
      9 C9          3.6129    2.1893   -0.0204 C.2     1  LIG1        0.0000
     10 C10         4.2136    2.5556    1.1011 C.2     1  LIG1        0.0000
     11 C11         5.5098    3.3500    1.0690 C.3     1  LIG1        0.0000
     12 C12         6.4342    2.8717   -0.0487 C.3     1  LIG1        0.0000
     13 C13         5.7420    2.4305   -1.3378 C.3     1  LIG1        0.0000
     14 C14         4.2241    2.5755   -1.3615 C.3     1  LIG1        0.0000
     15 C15         1.1720    2.0993    0.0020 C.ar    1  LIG1        0.0000
     16 H          -2.0511    3.7846    0.4437 H       1  LIG1        0.0000
     17 H          -0.7852    3.4112    1.4053 H       1  LIG1        0.0000
     18 H          -0.5268    3.9061   -0.1293 H       1  LIG1        0.0000
     19 H          -0.8702   -0.5236    0.0093 H       1  LIG1        0.0000
     20 H           1.2229   -1.6899   -0.0162 H       1  LIG1        0.0000
     21 H           3.5128   -1.7315   -0.0363 H       1  LIG1        0.0000
     22 H           4.2269   -0.5119   -0.8545 H       1  LIG1        0.0000
     23 H           4.2422   -0.5187    0.7784 H       1  LIG1        0.0000
     24 H           3.8094    2.3064    1.9812 H       1  LIG1        0.0000
     25 H           5.9781    3.2425    1.9460 H       1  LIG1        0.0000
     26 H           5.2951    4.3155    0.9219 H       1  LIG1        0.0000
     27 H           6.9603    2.0955    0.2987 H       1  LIG1        0.0000
     28 H           7.0561    3.6214   -0.2750 H       1  LIG1        0.0000
     29 H           6.1139    2.9773   -2.0880 H       1  LIG1        0.0000
     30 H           5.9601    1.4662   -1.4882 H       1  LIG1        0.0000
     31 H           3.9904    3.5263   -1.5647 H       1  LIG1        0.0000
     32 H           3.8507    1.9809   -2.0735 H       1  LIG1        0.0000
     33 H           1.1552    3.0992    0.0068 H       1  LIG1        0.0000
@<TRIPOS>BOND
     1     1     2    1
     2     2     3    1
     3     3     4   ar
     4     4     5   ar
     5     5     6   ar
     6     6     7    1
     7     6     8   ar
     8     8     9    1
     9     9    10    2
    10    10    11    1
    11    11    12    1
    12    12    13    1
    13    13    14    1
    14    14     9    1
    15     8    15   ar
    16    15     3   ar
    17     1    16    1
    18     1    17    1
    19     1    18    1
    20     4    19    1
    21     5    20    1
    22     7    21    1
    23     7    22    1
    24     7    23    1
    25    10    24    1
    26    11    25    1
    27    11    26    1
    28    12    27    1
    29    12    28    1
    30    13    29    1
    31    13    30    1
    32    14    31    1
    33    14    32    1
    34    15    33    1
