@<TRIPOS>MOLECULE
*****
 33 34 0 0 0
SMALL
USER_CHARGES

@<TRIPOS>ATOM
      1 C1         -1.1015    3.4540    0.0305 C.3     1  LIG1        0.0000
      2 O2         -1.1948    2.0371    0.0243 O.3     1  LIG1        0.0000
      3 C3         -0.0170    1.3770    0.0098 C.ar    1  LIG1        0.0000
      4 C4         -0.0097   -0.0142    0.0035 C.ar    1  LIG1        0.0000
      5 C5          1.2066   -0.6900   -0.0111 C.ar    1  LIG1        0.0000
      6 C6          2.4001    0.0252   -0.0185 C.ar    1  LIG1        0.0000
      7 C7          3.7074   -0.7506   -0.0340 C.3     1  LIG1        0.0000
      8 C8          2.3843    1.4176   -0.0126 C.ar    1  LIG1        0.0000
      9 C9          3.6122    2.1888   -0.0204 C.2     1  LIG1        0.0000
     10 C10         4.1485    2.5370   -1.1787 C.2     1  LIG1        0.0000
     11 C11         5.4530    3.3162   -1.2692 C.3     1  LIG1        0.0000
     12 C12         5.8266    3.9743    0.0480 C.3     1  LIG1        0.0000
     13 C13         5.7250    2.9167    1.1348 C.3     1  LIG1        0.0000
     14 C14         4.2541    2.5730    1.3027 C.3     1  LIG1        0.0000
     15 C15         1.1720    2.0993    0.0020 C.ar    1  LIG1        0.0000
     16 H          -2.0203    3.8486    0.0413 H       1  LIG1        0.0000
     17 H          -0.6014    3.7516    0.8438 H       1  LIG1        0.0000
     18 H          -0.6170    3.7597   -0.7891 H       1  LIG1        0.0000
     19 H          -0.8702   -0.5236    0.0093 H       1  LIG1        0.0000
     20 H           1.2229   -1.6899   -0.0162 H       1  LIG1        0.0000
     21 H           3.5128   -1.7315   -0.0363 H       1  LIG1        0.0000
     22 H           4.2269   -0.5119   -0.8545 H       1  LIG1        0.0000
     23 H           4.2422   -0.5187    0.7784 H       1  LIG1        0.0000
     24 H           3.6807    2.2793   -2.0241 H       1  LIG1        0.0000
     25 H           5.3553    4.0262   -1.9666 H       1  LIG1        0.0000
     26 H           6.1848    2.6879   -1.5333 H       1  LIG1        0.0000
     27 H           5.1973    4.7264    0.2441 H       1  LIG1        0.0000
     28 H           6.7616    4.3258    0.0006 H       1  LIG1        0.0000
     29 H           6.2375    2.1011    0.8663 H       1  LIG1        0.0000
     30 H           6.0923    3.2735    1.9937 H       1  LIG1        0.0000
     31 H           4.1712    1.8054    1.9382 H       1  LIG1        0.0000
     32 H           3.7761    3.3680    1.6761 H       1  LIG1        0.0000
     33 H           1.1552    3.0992    0.0068 H       1  LIG1        0.0000
@<TRIPOS>BOND
     1     1     2    1
     2     2     3    1
     3     3     4   ar
     4     4     5   ar
     5     5     6   ar
     6     6     7    1
     7     6     8   ar
     8     8     9    1
     9     9    10    2
    10    10    11    1
    11    11    12    1
    12    12    13    1
    13    13    14    1
    14    14     9    1
    15     8    15   ar
    16    15     3   ar
    17     1    16    1
    18     1    17    1
    19     1    18    1
    20     4    19    1
    21     5    20    1
    22     7    21    1
    23     7    22    1
    24     7    23    1
    25    10    24    1
    26    11    25    1
    27    11    26    1
    28    12    27    1
    29    12    28    1
    30    13    29    1
    31    13    30    1
    32    14    31    1
    33    14    32    1
    34    15    33    1
