@<TRIPOS>MOLECULE

  27   29
SMALL
USER_CHARGES
@<TRIPOS>ATOM
   1 C1           1.6016     0.9140    -0.3932 C.3          1    LIG   0.0000
   2 C2           1.0000     1.0000     1.0000 C.3          1    LIG   0.0000
   3 N3           1.8491     1.8491     1.8491 N.pl3        1    LIG   0.0000
   4 N4           1.7256     3.1464     1.9923 N.2          1    LIG   0.0000
   5 C5           2.6353     3.6046     2.8203 C.2          1    LIG   0.0000
   6 C6           3.4060     2.4973     3.2396 C.2          1    LIG   0.0000
   7 C7           2.8877     1.4055     2.6096 C.2          1    LIG   0.0000
   8 C8           3.3556     0.0377     2.7290 C.ar         1    LIG   0.0000
   9 C9           4.3344    -0.3938     1.8384 C.ar         1    LIG   0.0000
  10 C10          4.8164    -1.6963     1.9115 C.ar         1    LIG   0.0000
  11 C11          4.3046    -2.5490     2.8842 C.ar         1    LIG   0.0000
  12 C12          3.3281    -2.0942     3.7633 C.ar         1    LIG   0.0000
  13 O13          2.6740    -2.6703     4.7522 O.2          1    LIG   0.0000
  14 N14          1.8480    -1.8950     5.3240 N.2          1    LIG   0.0000
  15 C15          1.8821    -0.7221     4.7402 C.2          1    LIG   0.0000
  16 C16          2.8404    -0.8117     3.7049 C.ar         1    LIG   0.0000
  17 H            1.0243     0.3366    -0.9706 H            1    LIG   0.0000
  18 H            1.6582     1.8306    -0.7890 H            1    LIG   0.0000
  19 H            2.5182     0.5182    -0.3366 H            1    LIG   0.0000
  20 H            0.0834     1.3958     0.9434 H            1    LIG   0.0000
  21 H            0.9434     0.0834     1.3958 H            1    LIG   0.0000
  22 H            2.7593     4.5564     3.1008 H            1    LIG   0.0000
  23 H            4.1792     2.5118     3.8736 H            1    LIG   0.0000
  24 H            4.6912     0.2331     1.1458 H            1    LIG   0.0000
  25 H            5.5192    -2.0146     1.2753 H            1    LIG   0.0000
  26 H            4.6391    -3.4891     2.9511 H            1    LIG   0.0000
  27 H            1.3362     0.0805     4.9805 H            1    LIG   0.0000
@<TRIPOS>BOND
   1        1        2 1
   2        2        3 1
   3        3        4 1
   4        4        5 2
   5        5        6 1
   6        6        7 2
   7        7        3 1
   8        7        8 1
   9        8        9 ar
  10        9       10 ar
  11       10       11 ar
  12       11       12 ar
  13       12       13 1
  14       13       14 1
  15       14       15 2
  16       15       16 1
  17       16        8 ar
  18       16       12 ar
  19        1       17 1
  20        1       18 1
  21        1       19 1
  22        2       20 1
  23        2       21 1
  24        5       22 1
  25        6       23 1
  26        9       24 1
  27       10       25 1
  28       11       26 1
  29       15       27 1

@<TRIPOS>MOLECULE

  27   29
SMALL
USER_CHARGES
@<TRIPOS>ATOM
   1 C1           1.6016     0.9140    -0.3932 C.3          1    LIG   0.0000
   2 C2           1.0000     1.0000     1.0000 C.3          1    LIG   0.0000
   3 N3           1.8491     1.8491     1.8491 N.pl3        1    LIG   0.0000
   4 N4           1.7256     3.1464     1.9923 N.2          1    LIG   0.0000
   5 C5           2.6353     3.6046     2.8203 C.2          1    LIG   0.0000
   6 C6           3.4060     2.4973     3.2396 C.2          1    LIG   0.0000
   7 C7           2.8877     1.4055     2.6096 C.2          1    LIG   0.0000
   8 C8           3.3556     0.0377     2.7290 C.ar         1    LIG   0.0000
   9 C9           2.4132    -0.9495     3.0017 C.ar         1    LIG   0.0000
  10 C10          2.8110    -2.2764     3.1257 C.ar         1    LIG   0.0000
  11 C11          4.1571    -2.5918     2.9721 C.ar         1    LIG   0.0000
  12 C12          5.0795    -1.5880     2.6986 C.ar         1    LIG   0.0000
  13 O13          6.3852    -1.5958     2.5170 O.2          1    LIG   0.0000
  14 N14          6.8640    -0.4446     2.2808 N.2          1    LIG   0.0000
  15 C15          5.8949     0.4376     2.2980 C.2          1    LIG   0.0000
  16 C16          4.7042    -0.2728     2.5737 C.ar         1    LIG   0.0000
  17 H            1.0243     0.3366    -0.9706 H            1    LIG   0.0000
  18 H            1.6582     1.8306    -0.7890 H            1    LIG   0.0000
  19 H            2.5182     0.5182    -0.3366 H            1    LIG   0.0000
  20 H            0.0834     1.3958     0.9434 H            1    LIG   0.0000
  21 H            0.9434     0.0834     1.3958 H            1    LIG   0.0000
  22 H            2.7593     4.5564     3.1008 H            1    LIG   0.0000
  23 H            4.1792     2.5118     3.8736 H            1    LIG   0.0000
  24 H            1.4495    -0.7046     3.1086 H            1    LIG   0.0000
  25 H            2.1405    -2.9918     3.3220 H            1    LIG   0.0000
  26 H            4.4614    -3.5405     3.0583 H            1    LIG   0.0000
  27 H            5.9810     1.4221     2.1457 H            1    LIG   0.0000
@<TRIPOS>BOND
   1        1        2 1
   2        2        3 1
   3        3        4 1
   4        4        5 2
   5        5        6 1
   6        6        7 2
   7        7        3 1
   8        7        8 1
   9        8        9 ar
  10        9       10 ar
  11       10       11 ar
  12       11       12 ar
  13       12       13 1
  14       13       14 1
  15       14       15 2
  16       15       16 1
  17       16        8 ar
  18       16       12 ar
  19        1       17 1
  20        1       18 1
  21        1       19 1
  22        2       20 1
  23        2       21 1
  24        5       22 1
  25        6       23 1
  26        9       24 1
  27       10       25 1
  28       11       26 1
  29       15       27 1

@<TRIPOS>MOLECULE

  27   29
SMALL
USER_CHARGES
@<TRIPOS>ATOM
   1 C1           1.6016     0.9140    -0.3932 C.3          1    LIG   0.0000
   2 C2           1.0000     1.0000     1.0000 C.3          1    LIG   0.0000
   3 N3           1.8491     1.8491     1.8491 N.pl3        1    LIG   0.0000
   4 N4           1.7256     3.1464     1.9923 N.2          1    LIG   0.0000
   5 C5           2.6353     3.6046     2.8203 C.2          1    LIG   0.0000
   6 C6           3.4060     2.4973     3.2396 C.2          1    LIG   0.0000
   7 C7           2.8877     1.4055     2.6096 C.2          1    LIG   0.0000
   8 C8           3.3556     0.0377     2.7290 C.ar         1    LIG   0.0000
   9 C9           2.7958    -0.7554     3.7263 C.ar         1    LIG   0.0000
  10 C10          3.2104    -2.0737     3.8820 C.ar         1    LIG   0.0000
  11 C11          4.1860    -2.5771     3.0277 C.ar         1    LIG   0.0000
  12 C12          4.7293    -1.7655     2.0381 C.ar         1    LIG   0.0000
  13 O13          5.6502    -1.9694     1.1172 O.2          1    LIG   0.0000
  14 N14          5.8630    -0.9521     0.3890 N.2          1    LIG   0.0000
  15 C15          5.0914     0.0306     0.7847 C.2          1    LIG   0.0000
  16 C16          4.3321    -0.4614     1.8707 C.ar         1    LIG   0.0000
  17 H            1.0243     0.3366    -0.9706 H            1    LIG   0.0000
  18 H            1.6582     1.8306    -0.7890 H            1    LIG   0.0000
  19 H            2.5182     0.5182    -0.3366 H            1    LIG   0.0000
  20 H            0.0834     1.3958     0.9434 H            1    LIG   0.0000
  21 H            0.9434     0.0834     1.3958 H            1    LIG   0.0000
  22 H            2.7593     4.5564     3.1008 H            1    LIG   0.0000
  23 H            4.1792     2.5118     3.8736 H            1    LIG   0.0000
  24 H            2.0951    -0.3771     4.3313 H            1    LIG   0.0000
  25 H            2.8137    -2.6503     4.5963 H            1    LIG   0.0000
  26 H            4.4966    -3.5226     3.1253 H            1    LIG   0.0000
  27 H            5.0482     0.9502     0.3940 H            1    LIG   0.0000
@<TRIPOS>BOND
   1        1        2 1
   2        2        3 1
   3        3        4 1
   4        4        5 2
   5        5        6 1
   6        6        7 2
   7        7        3 1
   8        7        8 1
   9        8        9 ar
  10        9       10 ar
  11       10       11 ar
  12       11       12 ar
  13       12       13 1
  14       13       14 1
  15       14       15 2
  16       15       16 1
  17       16        8 ar
  18       16       12 ar
  19        1       17 1
  20        1       18 1
  21        1       19 1
  22        2       20 1
  23        2       21 1
  24        5       22 1
  25        6       23 1
  26        9       24 1
  27       10       25 1
  28       11       26 1
  29       15       27 1

@<TRIPOS>MOLECULE

  27   29
SMALL
USER_CHARGES
@<TRIPOS>ATOM
   1 C1           1.6016     0.9140    -0.3932 C.3          1    LIG   0.0000
   2 C2           1.0000     1.0000     1.0000 C.3          1    LIG   0.0000
   3 N3           1.8491     1.8491     1.8491 N.pl3        1    LIG   0.0000
   4 N4           1.9874     3.1473     1.7296 N.2          1    LIG   0.0000
   5 C5           2.8134     3.6059     2.6409 C.2          1    LIG   0.0000
   6 C6           3.2378     2.4976     3.4075 C.2          1    LIG   0.0000
   7 C7           2.6145     1.4046     2.8837 C.2          1    LIG   0.0000
   8 C8           2.7449     0.0347     3.3426 C.ar         1    LIG   0.0000
   9 C9           3.0252    -0.9441     2.3937 C.ar         1    LIG   0.0000
  10 C10          3.1598    -2.2725     2.7829 C.ar         1    LIG   0.0000
  11 C11          3.0104    -2.5977     4.1271 C.ar         1    LIG   0.0000
  12 C12          2.7318    -1.6018     5.0565 C.ar         1    LIG   0.0000
  13 O13          2.5359    -1.6217     6.3599 O.2          1    LIG   0.0000
  14 N14          2.3071    -0.4731     6.8487 N.2          1    LIG   0.0000
  15 C15          2.3230     0.4163     5.8862 C.2          1    LIG   0.0000
  16 C16          2.5949    -0.2854     4.6896 C.ar         1    LIG   0.0000
  17 H            1.0243     0.3366    -0.9706 H            1    LIG   0.0000
  18 H            1.6582     1.8306    -0.7890 H            1    LIG   0.0000
  19 H            2.5182     0.5182    -0.3366 H            1    LIG   0.0000
  20 H            0.0834     1.3958     0.9434 H            1    LIG   0.0000
  21 H            0.9434     0.0834     1.3958 H            1    LIG   0.0000
  22 H            3.0897     4.5585     2.7683 H            1    LIG   0.0000
  23 H            3.8706     2.5123     4.1816 H            1    LIG   0.0000
  24 H            3.1299    -0.6921     1.4316 H            1    LIG   0.0000
  25 H            3.3607    -2.9821     2.1076 H            1    LIG   0.0000
  26 H            3.1033    -3.5478     4.4250 H            1    LIG   0.0000
  27 H            2.1720     1.4004     5.9801 H            1    LIG   0.0000
@<TRIPOS>BOND
   1        1        2 1
   2        2        3 1
   3        3        4 1
   4        4        5 2
   5        5        6 1
   6        6        7 2
   7        7        3 1
   8        7        8 1
   9        8        9 ar
  10        9       10 ar
  11       10       11 ar
  12       11       12 ar
  13       12       13 1
  14       13       14 1
  15       14       15 2
  16       15       16 1
  17       16        8 ar
  18       16       12 ar
  19        1       17 1
  20        1       18 1
  21        1       19 1
  22        2       20 1
  23        2       21 1
  24        5       22 1
  25        6       23 1
  26        9       24 1
  27       10       25 1
  28       11       26 1
  29       15       27 1

@<TRIPOS>MOLECULE

  27   29
SMALL
USER_CHARGES
@<TRIPOS>ATOM
   1 C1           1.6016     0.9140    -0.3932 C.3          1    LIG   0.0000
   2 C2           1.0000     1.0000     1.0000 C.3          1    LIG   0.0000
   3 N3           1.8491     1.8491     1.8491 N.pl3        1    LIG   0.0000
   4 N4           2.2095     3.0795     1.5753 N.2          1    LIG   0.0000
   5 C5           2.9647     3.5601     2.5354 C.2          1    LIG   0.0000
   6 C6           3.0954     2.5417     3.5058 C.2          1    LIG   0.0000
   7 C7           2.3828     1.4753     3.0446 C.2          1    LIG   0.0000
   8 C8           2.2266     0.1924     3.7033 C.ar         1    LIG   0.0000
   9 C9           3.3387    -0.3499     4.3407 C.ar         1    LIG   0.0000
  10 C10          3.2407    -1.5776     4.9867 C.ar         1    LIG   0.0000
  11 C11          2.0198    -2.2442     4.9823 C.ar         1    LIG   0.0000
  12 C12          0.9228    -1.6812     4.3397 C.ar         1    LIG   0.0000
  13 O13         -0.3216    -2.0830     4.1728 O.2          1    LIG   0.0000
  14 N14         -1.0286    -1.2603     3.5143 N.2          1    LIG   0.0000
  15 C15         -0.2906    -0.2313     3.1764 C.2          1    LIG   0.0000
  16 C16          1.0019    -0.4704     3.6964 C.ar         1    LIG   0.0000
  17 H            1.0243     0.3366    -0.9706 H            1    LIG   0.0000
  18 H            1.6582     1.8306    -0.7890 H            1    LIG   0.0000
  19 H            2.5182     0.5182    -0.3366 H            1    LIG   0.0000
  20 H            0.0834     1.3958     0.9434 H            1    LIG   0.0000
  21 H            0.9434     0.0834     1.3958 H            1    LIG   0.0000
  22 H            3.3703     4.4734     2.5728 H            1    LIG   0.0000
  23 H            3.6093     2.5932     4.3621 H            1    LIG   0.0000
  24 H            4.2085     0.1434     4.3341 H            1    LIG   0.0000
  25 H            4.0349    -1.9747     5.4467 H            1    LIG   0.0000
  26 H            1.9310    -3.1281     5.4414 H            1    LIG   0.0000
  27 H           -0.5848     0.5680     2.6523 H            1    LIG   0.0000
@<TRIPOS>BOND
   1        1        2 1
   2        2        3 1
   3        3        4 1
   4        4        5 2
   5        5        6 1
   6        6        7 2
   7        7        3 1
   8        7        8 1
   9        8        9 ar
  10        9       10 ar
  11       10       11 ar
  12       11       12 ar
  13       12       13 1
  14       13       14 1
  15       14       15 2
  16       15       16 1
  17       16        8 ar
  18       16       12 ar
  19        1       17 1
  20        1       18 1
  21        1       19 1
  22        2       20 1
  23        2       21 1
  24        5       22 1
  25        6       23 1
  26        9       24 1
  27       10       25 1
  28       11       26 1
  29       15       27 1

@<TRIPOS>MOLECULE

  27   29
SMALL
USER_CHARGES
@<TRIPOS>ATOM
   1 C1           1.6016     0.9140    -0.3932 C.3          1    LIG   0.0000
   2 C2           1.0000     1.0000     1.0000 C.3          1    LIG   0.0000
   3 N3           1.8491     1.8491     1.8491 N.pl3        1    LIG   0.0000
   4 N4           2.2095     3.0795     1.5753 N.2          1    LIG   0.0000
   5 C5           2.9647     3.5601     2.5354 C.2          1    LIG   0.0000
   6 C6           3.0954     2.5417     3.5058 C.2          1    LIG   0.0000
   7 C7           2.3828     1.4753     3.0446 C.2          1    LIG   0.0000
   8 C8           2.2266     0.1924     3.7033 C.ar         1    LIG   0.0000
   9 C9           2.0492     0.1886     5.0837 C.ar         1    LIG   0.0000
  10 C10          1.8948    -1.0156     5.7623 C.ar         1    LIG   0.0000
  11 C11          1.9207    -2.2033     5.0385 C.ar         1    LIG   0.0000
  12 C12          2.0980    -2.1734     3.6598 C.ar         1    LIG   0.0000
  13 O13          2.1701    -3.1196     2.7448 O.2          1    LIG   0.0000
  14 N14          2.3376    -2.6680     1.5707 N.2          1    LIG   0.0000
  15 C15          2.4017    -1.3598     1.6168 C.2          1    LIG   0.0000
  16 C16          2.2526    -0.9936     2.9740 C.ar         1    LIG   0.0000
  17 H            1.0243     0.3366    -0.9706 H            1    LIG   0.0000
  18 H            1.6582     1.8306    -0.7890 H            1    LIG   0.0000
  19 H            2.5182     0.5182    -0.3366 H            1    LIG   0.0000
  20 H            0.0834     1.3958     0.9434 H            1    LIG   0.0000
  21 H            0.9434     0.0834     1.3958 H            1    LIG   0.0000
  22 H            3.3703     4.4734     2.5728 H            1    LIG   0.0000
  23 H            3.6093     2.5932     4.3621 H            1    LIG   0.0000
  24 H            2.0328     1.0521     5.5879 H            1    LIG   0.0000
  25 H            1.7674    -1.0274     6.7540 H            1    LIG   0.0000
  26 H            1.8117    -3.0785     5.5099 H            1    LIG   0.0000
  27 H            2.5310    -0.7408     0.8421 H            1    LIG   0.0000
@<TRIPOS>BOND
   1        1        2 1
   2        2        3 1
   3        3        4 1
   4        4        5 2
   5        5        6 1
   6        6        7 2
   7        7        3 1
   8        7        8 1
   9        8        9 ar
  10        9       10 ar
  11       10       11 ar
  12       11       12 ar
  13       12       13 1
  14       13       14 1
  15       14       15 2
  16       15       16 1
  17       16        8 ar
  18       16       12 ar
  19        1       17 1
  20        1       18 1
  21        1       19 1
  22        2       20 1
  23        2       21 1
  24        5       22 1
  25        6       23 1
  26        9       24 1
  27       10       25 1
  28       11       26 1
  29       15       27 1

@<TRIPOS>MOLECULE

  27   29
SMALL
USER_CHARGES
@<TRIPOS>ATOM
   1 C1           1.6016     0.9140    -0.3932 C.3          1    LIG   0.0000
   2 C2           1.0000     1.0000     1.0000 C.3          1    LIG   0.0000
   3 N3           1.8491     1.8491     1.8491 N.pl3        1    LIG   0.0000
   4 N4           2.8506     1.4298     2.5839 N.2          1    LIG   0.0000
   5 C5           3.4048     2.4355     3.2199 C.2          1    LIG   0.0000
   6 C6           2.6893     3.5980     2.8557 C.2          1    LIG   0.0000
   7 C7           1.7141     3.1964     1.9922 C.2          1    LIG   0.0000
   8 C8           0.7259     4.0438     1.3525 C.ar         1    LIG   0.0000
   9 C9          -0.6086     3.6557     1.4277 C.ar         1    LIG   0.0000
  10 C10         -1.5945     4.4340     0.8306 C.ar         1    LIG   0.0000
  11 C11         -1.2215     5.5968     0.1644 C.ar         1    LIG   0.0000
  12 C12          0.1182     5.9642     0.1041 C.ar         1    LIG   0.0000
  13 O13          0.7442     6.9822    -0.4522 O.2          1    LIG   0.0000
  14 N14          2.0001     6.9553    -0.2728 N.2          1    LIG   0.0000
  15 C15          2.3139     5.8894     0.4222 C.2          1    LIG   0.0000
  16 C16          1.1045     5.2072     0.6874 C.ar         1    LIG   0.0000
  17 H            1.0243     0.3366    -0.9706 H            1    LIG   0.0000
  18 H            1.6582     1.8306    -0.7890 H            1    LIG   0.0000
  19 H            2.5182     0.5182    -0.3366 H            1    LIG   0.0000
  20 H            0.0834     1.3958     0.9434 H            1    LIG   0.0000
  21 H            0.9434     0.0834     1.3958 H            1    LIG   0.0000
  22 H            4.1850     2.3879     3.8436 H            1    LIG   0.0000
  23 H            2.8638     4.5313     3.1694 H            1    LIG   0.0000
  24 H           -0.8586     2.8168     1.9112 H            1    LIG   0.0000
  25 H           -2.5556     4.1623     0.8795 H            1    LIG   0.0000
  26 H           -1.9168     6.1685    -0.2712 H            1    LIG   0.0000
  27 H            3.2309     5.6124     0.7092 H            1    LIG   0.0000
@<TRIPOS>BOND
   1        1        2 1
   2        2        3 1
   3        3        4 1
   4        4        5 2
   5        5        6 1
   6        6        7 2
   7        7        3 1
   8        7        8 1
   9        8        9 ar
  10        9       10 ar
  11       10       11 ar
  12       11       12 ar
  13       12       13 1
  14       13       14 1
  15       14       15 2
  16       15       16 1
  17       16        8 ar
  18       16       12 ar
  19        1       17 1
  20        1       18 1
  21        1       19 1
  22        2       20 1
  23        2       21 1
  24        5       22 1
  25        6       23 1
  26        9       24 1
  27       10       25 1
  28       11       26 1
  29       15       27 1

@<TRIPOS>MOLECULE

  27   29
SMALL
USER_CHARGES
@<TRIPOS>ATOM
   1 C1           1.6016     0.9140    -0.3932 C.3          1    LIG   0.0000
   2 C2           1.0000     1.0000     1.0000 C.3          1    LIG   0.0000
   3 N3           1.8491     1.8491     1.8491 N.pl3        1    LIG   0.0000
   4 N4           2.8506     1.4298     2.5839 N.2          1    LIG   0.0000
   5 C5           3.4048     2.4355     3.2199 C.2          1    LIG   0.0000
   6 C6           2.6893     3.5980     2.8557 C.2          1    LIG   0.0000
   7 C7           1.7141     3.1964     1.9922 C.2          1    LIG   0.0000
   8 C8           0.7259     4.0438     1.3525 C.ar         1    LIG   0.0000
   9 C9          -0.4817     4.2465     2.0143 C.ar         1    LIG   0.0000
  10 C10         -1.4620     5.0507     1.4429 C.ar         1    LIG   0.0000
  11 C11         -1.2115     5.6422     0.2090 C.ar         1    LIG   0.0000
  12 C12          0.0033     5.4257    -0.4318 C.ar         1    LIG   0.0000
  13 O13          0.4966     5.8409    -1.5816 O.2          1    LIG   0.0000
  14 N14          1.6700     5.4130    -1.8060 N.2          1    LIG   0.0000
  15 C15          2.0514     4.6556    -0.8067 C.2          1    LIG   0.0000
  16 C16          0.9820     4.6341     0.1176 C.ar         1    LIG   0.0000
  17 H            1.0243     0.3366    -0.9706 H            1    LIG   0.0000
  18 H            1.6582     1.8306    -0.7890 H            1    LIG   0.0000
  19 H            2.5182     0.5182    -0.3366 H            1    LIG   0.0000
  20 H            0.0834     1.3958     0.9434 H            1    LIG   0.0000
  21 H            0.9434     0.0834     1.3958 H            1    LIG   0.0000
  22 H            4.1850     2.3879     3.8436 H            1    LIG   0.0000
  23 H            2.8638     4.5313     3.1694 H            1    LIG   0.0000
  24 H           -0.6445     3.8136     2.9009 H            1    LIG   0.0000
  25 H           -2.3326     5.2012     1.9113 H            1    LIG   0.0000
  26 H           -1.9050     6.2231    -0.2170 H            1    LIG   0.0000
  27 H            2.9286     4.1843    -0.7157 H            1    LIG   0.0000
@<TRIPOS>BOND
   1        1        2 1
   2        2        3 1
   3        3        4 1
   4        4        5 2
   5        5        6 1
   6        6        7 2
   7        7        3 1
   8        7        8 1
   9        8        9 ar
  10        9       10 ar
  11       10       11 ar
  12       11       12 ar
  13       12       13 1
  14       13       14 1
  15       14       15 2
  16       15       16 1
  17       16        8 ar
  18       16       12 ar
  19        1       17 1
  20        1       18 1
  21        1       19 1
  22        2       20 1
  23        2       21 1
  24        5       22 1
  25        6       23 1
  26        9       24 1
  27       10       25 1
  28       11       26 1
  29       15       27 1

@<TRIPOS>MOLECULE

  27   29
SMALL
USER_CHARGES
@<TRIPOS>ATOM
   1 C1           1.6016     0.9140    -0.3932 C.3          1    LIG   0.0000
   2 C2           1.0000     1.0000     1.0000 C.3          1    LIG   0.0000
   3 N3           1.8491     1.8491     1.8491 N.pl3        1    LIG   0.0000
   4 N4           2.8506     1.4298     2.5839 N.2          1    LIG   0.0000
   5 C5           3.4048     2.4355     3.2199 C.2          1    LIG   0.0000
   6 C6           2.6893     3.5980     2.8557 C.2          1    LIG   0.0000
   7 C7           1.7141     3.1964     1.9922 C.2          1    LIG   0.0000
   8 C8           0.7259     4.0438     1.3525 C.ar         1    LIG   0.0000
   9 C9           1.0487     4.5999     0.1181 C.ar         1    LIG   0.0000
  10 C10          0.1354     5.4195    -0.5362 C.ar         1    LIG   0.0000
  11 C11         -1.0949     5.6682     0.0634 C.ar         1    LIG   0.0000
  12 C12         -1.3947     5.1001     1.2965 C.ar         1    LIG   0.0000
  13 O13         -2.4515     5.1681     2.0815 O.2          1    LIG   0.0000
  14 N14         -2.3297     4.4854     3.1443 N.2          1    LIG   0.0000
  15 C15         -1.1536     3.9072     3.1531 C.2          1    LIG   0.0000
  16 C16         -0.5045     4.2891     1.9569 C.ar         1    LIG   0.0000
  17 H            1.0243     0.3366    -0.9706 H            1    LIG   0.0000
  18 H            1.6582     1.8306    -0.7890 H            1    LIG   0.0000
  19 H            2.5182     0.5182    -0.3366 H            1    LIG   0.0000
  20 H            0.0834     1.3958     0.9434 H            1    LIG   0.0000
  21 H            0.9434     0.0834     1.3958 H            1    LIG   0.0000
  22 H            4.1850     2.3879     3.8436 H            1    LIG   0.0000
  23 H            2.8638     4.5313     3.1694 H            1    LIG   0.0000
  24 H            1.9378     4.4099    -0.2984 H            1    LIG   0.0000
  25 H            0.3594     5.8235    -1.4232 H            1    LIG   0.0000
  26 H           -1.7637     6.2555    -0.3924 H            1    LIG   0.0000
  27 H           -0.7866     3.3114     3.8676 H            1    LIG   0.0000
@<TRIPOS>BOND
   1        1        2 1
   2        2        3 1
   3        3        4 1
   4        4        5 2
   5        5        6 1
   6        6        7 2
   7        7        3 1
   8        7        8 1
   9        8        9 ar
  10        9       10 ar
  11       10       11 ar
  12       11       12 ar
  13       12       13 1
  14       13       14 1
  15       14       15 2
  16       15       16 1
  17       16        8 ar
  18       16       12 ar
  19        1       17 1
  20        1       18 1
  21        1       19 1
  22        2       20 1
  23        2       21 1
  24        5       22 1
  25        6       23 1
  26        9       24 1
  27       10       25 1
  28       11       26 1
  29       15       27 1

@<TRIPOS>MOLECULE

  27   29
SMALL
USER_CHARGES
@<TRIPOS>ATOM
   1 C1           1.6016     0.9140    -0.3932 C.3          1    LIG   0.0000
   2 C2           1.0000     1.0000     1.0000 C.3          1    LIG   0.0000
   3 N3           1.8491     1.8491     1.8491 N.pl3        1    LIG   0.0000
   4 N4           3.0446     1.5342     2.2855 N.2          1    LIG   0.0000
   5 C5           3.5365     2.5073     3.0164 C.2          1    LIG   0.0000
   6 C6           2.5643     3.5319     3.0467 C.2          1    LIG   0.0000
   7 C7           1.5118     3.0875     2.3035 C.2          1    LIG   0.0000
   8 C8           0.2737     3.7993     2.0492 C.ar         1    LIG   0.0000
   9 C9          -0.1607     3.8956     0.7305 C.ar         1    LIG   0.0000
  10 C10         -1.3416     4.5679     0.4341 C.ar         1    LIG   0.0000
  11 C11         -2.0714     5.1352     1.4736 C.ar         1    LIG   0.0000
  12 C12         -1.6173     5.0244     2.7831 C.ar         1    LIG   0.0000
  13 O13         -2.0882     5.4598     3.9348 O.2          1    LIG   0.0000
  14 N14         -1.3629     5.1380     4.9252 N.2          1    LIG   0.0000
  15 C15         -0.3266     4.4587     4.4983 C.2          1    LIG   0.0000
  16 C16         -0.4534     4.3649     3.0936 C.ar         1    LIG   0.0000
  17 H            1.0243     0.3366    -0.9706 H            1    LIG   0.0000
  18 H            1.6582     1.8306    -0.7890 H            1    LIG   0.0000
  19 H            2.5182     0.5182    -0.3366 H            1    LIG   0.0000
  20 H            0.0834     1.3958     0.9434 H            1    LIG   0.0000
  21 H            0.9434     0.0834     1.3958 H            1    LIG   0.0000
  22 H            4.4295     2.5207     3.4663 H            1    LIG   0.0000
  23 H            2.6346     4.4100     3.5199 H            1    LIG   0.0000
  24 H            0.3765     3.4813    -0.0042 H            1    LIG   0.0000
  25 H           -1.6607     4.6422    -0.5107 H            1    LIG   0.0000
  26 H           -2.9226     5.6227     1.2790 H            1    LIG   0.0000
  27 H            0.4107     4.0802     5.0578 H            1    LIG   0.0000
@<TRIPOS>BOND
   1        1        2 1
   2        2        3 1
   3        3        4 1
   4        4        5 2
   5        5        6 1
   6        6        7 2
   7        7        3 1
   8        7        8 1
   9        8        9 ar
  10        9       10 ar
  11       10       11 ar
  12       11       12 ar
  13       12       13 1
  14       13       14 1
  15       14       15 2
  16       15       16 1
  17       16        8 ar
  18       16       12 ar
  19        1       17 1
  20        1       18 1
  21        1       19 1
  22        2       20 1
  23        2       21 1
  24        5       22 1
  25        6       23 1
  26        9       24 1
  27       10       25 1
  28       11       26 1
  29       15       27 1

@<TRIPOS>MOLECULE

  27   29
SMALL
USER_CHARGES
@<TRIPOS>ATOM
   1 C1           1.6016     0.9140    -0.3932 C.3          1    LIG   0.0000
   2 C2           1.0000     1.0000     1.0000 C.3          1    LIG   0.0000
   3 N3           1.8491     1.8491     1.8491 N.pl3        1    LIG   0.0000
   4 N4           3.1311     1.6734     2.0599 N.2          1    LIG   0.0000
   5 C5           3.5950     2.6025     2.8628 C.2          1    LIG   0.0000
   6 C6           2.5083     3.4433     3.1913 C.2          1    LIG   0.0000
   7 C7           1.4215     2.9423     2.5389 C.2          1    LIG   0.0000
   8 C8           0.0724     3.4741     2.5758 C.ar         1    LIG   0.0000
   9 C9          -0.4079     3.9420     3.7953 C.ar         1    LIG   0.0000
  10 C10         -1.6950     4.4615     3.8833 C.ar         1    LIG   0.0000
  11 C11         -2.4830     4.5033     2.7377 C.ar         1    LIG   0.0000
  12 C12         -1.9801     4.0309     1.5305 C.ar         1    LIG   0.0000
  13 O13         -2.4930     3.9418     0.3194 O.2          1    LIG   0.0000
  14 N14         -1.6904     3.4439    -0.5281 N.2          1    LIG   0.0000
  15 C15         -0.5619     3.1475     0.0689 C.2          1    LIG   0.0000
  16 C16         -0.7120     3.5141     1.4259 C.ar         1    LIG   0.0000
  17 H            1.0243     0.3366    -0.9706 H            1    LIG   0.0000
  18 H            1.6582     1.8306    -0.7890 H            1    LIG   0.0000
  19 H            2.5182     0.5182    -0.3366 H            1    LIG   0.0000
  20 H            0.0834     1.3958     0.9434 H            1    LIG   0.0000
  21 H            0.9434     0.0834     1.3958 H            1    LIG   0.0000
  22 H            4.5382     2.6971     3.1813 H            1    LIG   0.0000
  23 H            2.5318     4.2475     3.7853 H            1    LIG   0.0000
  24 H            0.1727     3.9047     4.6087 H            1    LIG   0.0000
  25 H           -2.0482     4.7995     4.7557 H            1    LIG   0.0000
  26 H           -3.4111     4.8730     2.7823 H            1    LIG   0.0000
  27 H            0.2482     2.7409    -0.3536 H            1    LIG   0.0000
@<TRIPOS>BOND
   1        1        2 1
   2        2        3 1
   3        3        4 1
   4        4        5 2
   5        5        6 1
   6        6        7 2
   7        7        3 1
   8        7        8 1
   9        8        9 ar
  10        9       10 ar
  11       10       11 ar
  12       11       12 ar
  13       12       13 1
  14       13       14 1
  15       14       15 2
  16       15       16 1
  17       16        8 ar
  18       16       12 ar
  19        1       17 1
  20        1       18 1
  21        1       19 1
  22        2       20 1
  23        2       21 1
  24        5       22 1
  25        6       23 1
  26        9       24 1
  27       10       25 1
  28       11       26 1
  29       15       27 1

@<TRIPOS>MOLECULE

  27   29
SMALL
USER_CHARGES
@<TRIPOS>ATOM
   1 C1           1.6016     0.9140    -0.3932 C.3          1    LIG   0.0000
   2 C2           1.0000     1.0000     1.0000 C.3          1    LIG   0.0000
   3 N3           1.8491     1.8491     1.8491 N.pl3        1    LIG   0.0000
   4 N4           3.1311     1.6734     2.0599 N.2          1    LIG   0.0000
   5 C5           3.5950     2.6025     2.8628 C.2          1    LIG   0.0000
   6 C6           2.5083     3.4433     3.1913 C.2          1    LIG   0.0000
   7 C7           1.4215     2.9423     2.5389 C.2          1    LIG   0.0000
   8 C8           0.0724     3.4741     2.5758 C.ar         1    LIG   0.0000
   9 C9          -0.0814     4.8570     2.5459 C.ar         1    LIG   0.0000
  10 C10         -1.3542     5.4166     2.5792 C.ar         1    LIG   0.0000
  11 C11         -2.4583     4.5726     2.6416 C.ar         1    LIG   0.0000
  12 C12         -2.2788     3.1941     2.6690 C.ar         1    LIG   0.0000
  13 O13         -3.1208     2.1818     2.7342 O.2          1    LIG   0.0000
  14 N14         -2.5443     1.0513     2.7333 N.2          1    LIG   0.0000
  15 C15         -1.2470     1.2286     2.6771 C.2          1    LIG   0.0000
  16 C16         -1.0294     2.6248     2.6376 C.ar         1    LIG   0.0000
  17 H            1.0243     0.3366    -0.9706 H            1    LIG   0.0000
  18 H            1.6582     1.8306    -0.7890 H            1    LIG   0.0000
  19 H            2.5182     0.5182    -0.3366 H            1    LIG   0.0000
  20 H            0.0834     1.3958     0.9434 H            1    LIG   0.0000
  21 H            0.9434     0.0834     1.3958 H            1    LIG   0.0000
  22 H            4.5382     2.6971     3.1813 H            1    LIG   0.0000
  23 H            2.5318     4.2475     3.7853 H            1    LIG   0.0000
  24 H            0.7236     5.4486     2.5006 H            1    LIG   0.0000
  25 H           -1.4738     6.4092     2.5586 H            1    LIG   0.0000
  26 H           -3.3810     4.9574     2.6667 H            1    LIG   0.0000
  27 H           -0.5469     0.5147     2.6645 H            1    LIG   0.0000
@<TRIPOS>BOND
   1        1        2 1
   2        2        3 1
   3        3        4 1
   4        4        5 2
   5        5        6 1
   6        6        7 2
   7        7        3 1
   8        7        8 1
   9        8        9 ar
  10        9       10 ar
  11       10       11 ar
  12       11       12 ar
  13       12       13 1
  14       13       14 1
  15       14       15 2
  16       15       16 1
  17       16        8 ar
  18       16       12 ar
  19        1       17 1
  20        1       18 1
  21        1       19 1
  22        2       20 1
  23        2       21 1
  24        5       22 1
  25        6       23 1
  26        9       24 1
  27       10       25 1
  28       11       26 1
  29       15       27 1

@<TRIPOS>MOLECULE

  27   29
SMALL
USER_CHARGES
@<TRIPOS>ATOM
   1 C1           1.6016     0.9140    -0.3932 C.3          1    LIG   0.0000
   2 C2           1.0000     1.0000     1.0000 C.3          1    LIG   0.0000
   3 N3           1.8491     1.8491     1.8491 N.pl3        1    LIG   0.0000
   4 N4           3.1311     1.6734     2.0599 N.2          1    LIG   0.0000
   5 C5           3.5950     2.6025     2.8628 C.2          1    LIG   0.0000
   6 C6           2.5083     3.4433     3.1913 C.2          1    LIG   0.0000
   7 C7           1.4215     2.9423     2.5389 C.2          1    LIG   0.0000
   8 C8           0.0724     3.4741     2.5758 C.ar         1    LIG   0.0000
   9 C9          -0.1647     4.6878     1.9372 C.ar         1    LIG   0.0000
  10 C10         -1.4412     5.2400     1.9439 C.ar         1    LIG   0.0000
  11 C11         -2.4648     4.5594     2.5952 C.ar         1    LIG   0.0000
  12 C12         -2.2032     3.3476     3.2248 C.ar         1    LIG   0.0000
  13 O13         -2.9590     2.5109     3.9076 O.2          1    LIG   0.0000
  14 N14         -2.3272     1.4920     4.3237 N.2          1    LIG   0.0000
  15 C15         -1.0738     1.5797     3.9509 C.2          1    LIG   0.0000
  16 C16         -0.9488     2.7884     3.2286 C.ar         1    LIG   0.0000
  17 H            1.0243     0.3366    -0.9706 H            1    LIG   0.0000
  18 H            1.6582     1.8306    -0.7890 H            1    LIG   0.0000
  19 H            2.5182     0.5182    -0.3366 H            1    LIG   0.0000
  20 H            0.0834     1.3958     0.9434 H            1    LIG   0.0000
  21 H            0.9434     0.0834     1.3958 H            1    LIG   0.0000
  22 H            4.5382     2.6971     3.1813 H            1    LIG   0.0000
  23 H            2.5318     4.2475     3.7853 H            1    LIG   0.0000
  24 H            0.5830     5.1631     1.4735 H            1    LIG   0.0000
  25 H           -1.6202     6.1118     1.4880 H            1    LIG   0.0000
  26 H           -3.3887     4.9416     2.6105 H            1    LIG   0.0000
  27 H           -0.3469     0.9197     4.1406 H            1    LIG   0.0000
@<TRIPOS>BOND
   1        1        2 1
   2        2        3 1
   3        3        4 1
   4        4        5 2
   5        5        6 1
   6        6        7 2
   7        7        3 1
   8        7        8 1
   9        8        9 ar
  10        9       10 ar
  11       10       11 ar
  12       11       12 ar
  13       12       13 1
  14       13       14 1
  15       14       15 2
  16       15       16 1
  17       16        8 ar
  18       16       12 ar
  19        1       17 1
  20        1       18 1
  21        1       19 1
  22        2       20 1
  23        2       21 1
  24        5       22 1
  25        6       23 1
  26        9       24 1
  27       10       25 1
  28       11       26 1
  29       15       27 1

@<TRIPOS>MOLECULE

  27   29
SMALL
USER_CHARGES
@<TRIPOS>ATOM
   1 C1           1.6016     0.9140    -0.3932 C.3          1    LIG   0.0000
   2 C2           1.0000     1.0000     1.0000 C.3          1    LIG   0.0000
   3 N3           1.8491     1.8491     1.8491 N.pl3        1    LIG   0.0000
   4 N4           2.3667     1.4967     3.0009 N.2          1    LIG   0.0000
   5 C5           3.0755     2.4800     3.5047 C.2          1    LIG   0.0000
   6 C6           2.9999     3.5535     2.5895 C.2          1    LIG   0.0000
   7 C7           2.2190     3.1265     1.5572 C.2          1    LIG   0.0000
   8 C8           1.8549     3.8891     0.3782 C.ar         1    LIG   0.0000
   9 C9           2.8529     4.1606    -0.5532 C.ar         1    LIG   0.0000
  10 C10          2.5548     4.8882    -1.7004 C.ar         1    LIG   0.0000
  11 C11          1.2512     5.3332    -1.8946 C.ar         1    LIG   0.0000
  12 C12          0.2714     5.0481    -0.9502 C.ar         1    LIG   0.0000
  13 O13         -1.0111     5.3429    -0.8724 O.2          1    LIG   0.0000
  14 N14         -1.5671     4.8838     0.1719 N.2          1    LIG   0.0000
  15 C15         -0.6762     4.2439     0.8892 C.2          1    LIG   0.0000
  16 C16          0.5483     4.3317     0.1883 C.ar         1    LIG   0.0000
  17 H            1.0243     0.3366    -0.9706 H            1    LIG   0.0000
  18 H            1.6582     1.8306    -0.7890 H            1    LIG   0.0000
  19 H            2.5182     0.5182    -0.3366 H            1    LIG   0.0000
  20 H            0.0834     1.3958     0.9434 H            1    LIG   0.0000
  21 H            0.9434     0.0834     1.3958 H            1    LIG   0.0000
  22 H            3.5741     2.4709     4.3715 H            1    LIG   0.0000
  23 H            3.4338     4.4499     2.6809 H            1    LIG   0.0000
  24 H            3.7845     3.8324    -0.3974 H            1    LIG   0.0000
  25 H            3.2659     5.0881    -2.3745 H            1    LIG   0.0000
  26 H            1.0189     5.8581    -2.7135 H            1    LIG   0.0000
  27 H           -0.8323     3.7830     1.7628 H            1    LIG   0.0000
@<TRIPOS>BOND
   1        1        2 1
   2        2        3 1
   3        3        4 1
   4        4        5 2
   5        5        6 1
   6        6        7 2
   7        7        3 1
   8        7        8 1
   9        8        9 ar
  10        9       10 ar
  11       10       11 ar
  12       11       12 ar
  13       12       13 1
  14       13       14 1
  15       14       15 2
  16       15       16 1
  17       16        8 ar
  18       16       12 ar
  19        1       17 1
  20        1       18 1
  21        1       19 1
  22        2       20 1
  23        2       21 1
  24        5       22 1
  25        6       23 1
  26        9       24 1
  27       10       25 1
  28       11       26 1
  29       15       27 1

