@<TRIPOS>MOLECULE
*****
 27 29 0 0 0
SMALL
USER_CHARGES

@<TRIPOS>ATOM
      1 C1          1.6016    0.9140   -0.3932 C.3     1  LIG1        0.0000
      2 C2          1.0000    1.0000    1.0000 C.3     1  LIG1        0.0000
      3 N3          1.8491    1.8491    1.8491 N.pl3   1  LIG1        0.0000
      4 N4          2.2095    3.0795    1.5753 N.2     1  LIG1        0.0000
      5 C5          2.9647    3.5601    2.5354 C.2     1  LIG1        0.0000
      6 C6          3.0954    2.5417    3.5058 C.2     1  LIG1        0.0000
      7 C7          2.3828    1.4753    3.0446 C.2     1  LIG1        0.0000
      8 C8          2.2266    0.1924    3.7033 C.ar    1  LIG1        0.0000
      9 C9          3.3387   -0.3499    4.3407 C.ar    1  LIG1        0.0000
     10 C10         3.2407   -1.5776    4.9867 C.ar    1  LIG1        0.0000
     11 C11         2.0198   -2.2442    4.9823 C.ar    1  LIG1        0.0000
     12 C12         0.9228   -1.6812    4.3397 C.ar    1  LIG1        0.0000
     13 O13        -0.3216   -2.0830    4.1728 O.2     1  LIG1        0.0000
     14 N14        -1.0286   -1.2603    3.5143 N.2     1  LIG1        0.0000
     15 C15        -0.2906   -0.2313    3.1764 C.2     1  LIG1        0.0000
     16 C16         1.0019   -0.4704    3.6964 C.ar    1  LIG1        0.0000
     17 H           1.0243    0.3366   -0.9706 H       1  LIG1        0.0000
     18 H           1.6582    1.8306   -0.7890 H       1  LIG1        0.0000
     19 H           2.5182    0.5182   -0.3366 H       1  LIG1        0.0000
     20 H           0.0834    1.3958    0.9434 H       1  LIG1        0.0000
     21 H           0.9434    0.0834    1.3958 H       1  LIG1        0.0000
     22 H           3.3703    4.4734    2.5728 H       1  LIG1        0.0000
     23 H           3.6093    2.5932    4.3621 H       1  LIG1        0.0000
     24 H           4.2085    0.1434    4.3341 H       1  LIG1        0.0000
     25 H           4.0349   -1.9747    5.4467 H       1  LIG1        0.0000
     26 H           1.9310   -3.1281    5.4414 H       1  LIG1        0.0000
     27 H          -0.5848    0.5680    2.6523 H       1  LIG1        0.0000
@<TRIPOS>BOND
     1     1     2    1
     2     2     3    1
     3     3     4    1
     4     4     5    2
     5     5     6    1
     6     6     7    2
     7     7     3    1
     8     7     8    1
     9     8     9   ar
    10     9    10   ar
    11    10    11   ar
    12    11    12   ar
    13    12    13    1
    14    13    14    1
    15    14    15    2
    16    15    16    1
    17    16     8   ar
    18    16    12   ar
    19     1    17    1
    20     1    18    1
    21     1    19    1
    22     2    20    1
    23     2    21    1
    24     5    22    1
    25     6    23    1
    26     9    24    1
    27    10    25    1
    28    11    26    1
    29    15    27    1
