@<TRIPOS>MOLECULE
*****
 27 29 0 0 0
SMALL
USER_CHARGES

@<TRIPOS>ATOM
      1 C1          1.6016    0.9140   -0.3932 C.3     1  LIG1        0.0000
      2 C2          1.0000    1.0000    1.0000 C.3     1  LIG1        0.0000
      3 N3          1.8491    1.8491    1.8491 N.pl3   1  LIG1        0.0000
      4 N4          1.9874    3.1473    1.7296 N.2     1  LIG1        0.0000
      5 C5          2.8134    3.6059    2.6409 C.2     1  LIG1        0.0000
      6 C6          3.2378    2.4976    3.4075 C.2     1  LIG1        0.0000
      7 C7          2.6145    1.4046    2.8837 C.2     1  LIG1        0.0000
      8 C8          2.7449    0.0347    3.3426 C.ar    1  LIG1        0.0000
      9 C9          3.0252   -0.9441    2.3937 C.ar    1  LIG1        0.0000
     10 C10         3.1598   -2.2725    2.7829 C.ar    1  LIG1        0.0000
     11 C11         3.0104   -2.5977    4.1271 C.ar    1  LIG1        0.0000
     12 C12         2.7318   -1.6018    5.0565 C.ar    1  LIG1        0.0000
     13 O13         2.5359   -1.6217    6.3599 O.2     1  LIG1        0.0000
     14 N14         2.3071   -0.4731    6.8487 N.2     1  LIG1        0.0000
     15 C15         2.3230    0.4163    5.8862 C.2     1  LIG1        0.0000
     16 C16         2.5949   -0.2854    4.6896 C.ar    1  LIG1        0.0000
     17 H           1.0243    0.3366   -0.9706 H       1  LIG1        0.0000
     18 H           1.6582    1.8306   -0.7890 H       1  LIG1        0.0000
     19 H           2.5182    0.5182   -0.3366 H       1  LIG1        0.0000
     20 H           0.0834    1.3958    0.9434 H       1  LIG1        0.0000
     21 H           0.9434    0.0834    1.3958 H       1  LIG1        0.0000
     22 H           3.0897    4.5585    2.7683 H       1  LIG1        0.0000
     23 H           3.8706    2.5123    4.1816 H       1  LIG1        0.0000
     24 H           3.1299   -0.6921    1.4316 H       1  LIG1        0.0000
     25 H           3.3607   -2.9821    2.1076 H       1  LIG1        0.0000
     26 H           3.1033   -3.5478    4.4250 H       1  LIG1        0.0000
     27 H           2.1720    1.4004    5.9801 H       1  LIG1        0.0000
@<TRIPOS>BOND
     1     1     2    1
     2     2     3    1
     3     3     4    1
     4     4     5    2
     5     5     6    1
     6     6     7    2
     7     7     3    1
     8     7     8    1
     9     8     9   ar
    10     9    10   ar
    11    10    11   ar
    12    11    12   ar
    13    12    13    1
    14    13    14    1
    15    14    15    2
    16    15    16    1
    17    16     8   ar
    18    16    12   ar
    19     1    17    1
    20     1    18    1
    21     1    19    1
    22     2    20    1
    23     2    21    1
    24     5    22    1
    25     6    23    1
    26     9    24    1
    27    10    25    1
    28    11    26    1
    29    15    27    1
