@<TRIPOS>MOLECULE
*****
 27 29 0 0 0
SMALL
USER_CHARGES

@<TRIPOS>ATOM
      1 C1          1.6016    0.9140   -0.3932 C.3     1  LIG1        0.0000
      2 C2          1.0000    1.0000    1.0000 C.3     1  LIG1        0.0000
      3 N3          1.8491    1.8491    1.8491 N.pl3   1  LIG1        0.0000
      4 N4          1.7256    3.1464    1.9923 N.2     1  LIG1        0.0000
      5 C5          2.6353    3.6046    2.8203 C.2     1  LIG1        0.0000
      6 C6          3.4060    2.4973    3.2396 C.2     1  LIG1        0.0000
      7 C7          2.8877    1.4055    2.6096 C.2     1  LIG1        0.0000
      8 C8          3.3556    0.0377    2.7290 C.ar    1  LIG1        0.0000
      9 C9          4.3344   -0.3938    1.8384 C.ar    1  LIG1        0.0000
     10 C10         4.8164   -1.6963    1.9115 C.ar    1  LIG1        0.0000
     11 C11         4.3046   -2.5490    2.8842 C.ar    1  LIG1        0.0000
     12 C12         3.3281   -2.0942    3.7633 C.ar    1  LIG1        0.0000
     13 O13         2.6740   -2.6703    4.7522 O.2     1  LIG1        0.0000
     14 N14         1.8480   -1.8950    5.3240 N.2     1  LIG1        0.0000
     15 C15         1.8821   -0.7221    4.7402 C.2     1  LIG1        0.0000
     16 C16         2.8404   -0.8117    3.7049 C.ar    1  LIG1        0.0000
     17 H           1.0243    0.3366   -0.9706 H       1  LIG1        0.0000
     18 H           1.6582    1.8306   -0.7890 H       1  LIG1        0.0000
     19 H           2.5182    0.5182   -0.3366 H       1  LIG1        0.0000
     20 H           0.0834    1.3958    0.9434 H       1  LIG1        0.0000
     21 H           0.9434    0.0834    1.3958 H       1  LIG1        0.0000
     22 H           2.7593    4.5564    3.1008 H       1  LIG1        0.0000
     23 H           4.1792    2.5118    3.8736 H       1  LIG1        0.0000
     24 H           4.6912    0.2331    1.1458 H       1  LIG1        0.0000
     25 H           5.5192   -2.0146    1.2753 H       1  LIG1        0.0000
     26 H           4.6391   -3.4891    2.9511 H       1  LIG1        0.0000
     27 H           1.3362    0.0805    4.9805 H       1  LIG1        0.0000
@<TRIPOS>BOND
     1     1     2    1
     2     2     3    1
     3     3     4    1
     4     4     5    2
     5     5     6    1
     6     6     7    2
     7     7     3    1
     8     7     8    1
     9     8     9   ar
    10     9    10   ar
    11    10    11   ar
    12    11    12   ar
    13    12    13    1
    14    13    14    1
    15    14    15    2
    16    15    16    1
    17    16     8   ar
    18    16    12   ar
    19     1    17    1
    20     1    18    1
    21     1    19    1
    22     2    20    1
    23     2    21    1
    24     5    22    1
    25     6    23    1
    26     9    24    1
    27    10    25    1
    28    11    26    1
    29    15    27    1
