@<TRIPOS>MOLECULE
*****
 27 29 0 0 0
SMALL
USER_CHARGES

@<TRIPOS>ATOM
      1 C1          1.6016    0.9140   -0.3932 C.3     1  LIG1        0.0000
      2 C2          1.0000    1.0000    1.0000 C.3     1  LIG1        0.0000
      3 N3          1.8491    1.8491    1.8491 N.pl3   1  LIG1        0.0000
      4 N4          3.0446    1.5342    2.2855 N.2     1  LIG1        0.0000
      5 C5          3.5365    2.5073    3.0164 C.2     1  LIG1        0.0000
      6 C6          2.5643    3.5319    3.0467 C.2     1  LIG1        0.0000
      7 C7          1.5118    3.0875    2.3035 C.2     1  LIG1        0.0000
      8 C8          0.2737    3.7993    2.0492 C.ar    1  LIG1        0.0000
      9 C9         -0.1607    3.8956    0.7305 C.ar    1  LIG1        0.0000
     10 C10        -1.3416    4.5679    0.4341 C.ar    1  LIG1        0.0000
     11 C11        -2.0714    5.1352    1.4736 C.ar    1  LIG1        0.0000
     12 C12        -1.6173    5.0244    2.7831 C.ar    1  LIG1        0.0000
     13 O13        -2.0882    5.4598    3.9348 O.2     1  LIG1        0.0000
     14 N14        -1.3629    5.1380    4.9252 N.2     1  LIG1        0.0000
     15 C15        -0.3266    4.4587    4.4983 C.2     1  LIG1        0.0000
     16 C16        -0.4534    4.3649    3.0936 C.ar    1  LIG1        0.0000
     17 H           1.0243    0.3366   -0.9706 H       1  LIG1        0.0000
     18 H           1.6582    1.8306   -0.7890 H       1  LIG1        0.0000
     19 H           2.5182    0.5182   -0.3366 H       1  LIG1        0.0000
     20 H           0.0834    1.3958    0.9434 H       1  LIG1        0.0000
     21 H           0.9434    0.0834    1.3958 H       1  LIG1        0.0000
     22 H           4.4295    2.5207    3.4663 H       1  LIG1        0.0000
     23 H           2.6346    4.4100    3.5199 H       1  LIG1        0.0000
     24 H           0.3765    3.4813   -0.0042 H       1  LIG1        0.0000
     25 H          -1.6607    4.6422   -0.5107 H       1  LIG1        0.0000
     26 H          -2.9226    5.6227    1.2790 H       1  LIG1        0.0000
     27 H           0.4107    4.0802    5.0578 H       1  LIG1        0.0000
@<TRIPOS>BOND
     1     1     2    1
     2     2     3    1
     3     3     4    1
     4     4     5    2
     5     5     6    1
     6     6     7    2
     7     7     3    1
     8     7     8    1
     9     8     9   ar
    10     9    10   ar
    11    10    11   ar
    12    11    12   ar
    13    12    13    1
    14    13    14    1
    15    14    15    2
    16    15    16    1
    17    16     8   ar
    18    16    12   ar
    19     1    17    1
    20     1    18    1
    21     1    19    1
    22     2    20    1
    23     2    21    1
    24     5    22    1
    25     6    23    1
    26     9    24    1
    27    10    25    1
    28    11    26    1
    29    15    27    1
