@<TRIPOS>MOLECULE
*****
 27 29 0 0 0
SMALL
USER_CHARGES

@<TRIPOS>ATOM
      1 C1          1.6016    0.9140   -0.3932 C.3     1  LIG1        0.0000
      2 C2          1.0000    1.0000    1.0000 C.3     1  LIG1        0.0000
      3 N3          1.8491    1.8491    1.8491 N.pl3   1  LIG1        0.0000
      4 N4          2.8506    1.4298    2.5839 N.2     1  LIG1        0.0000
      5 C5          3.4048    2.4355    3.2199 C.2     1  LIG1        0.0000
      6 C6          2.6893    3.5980    2.8557 C.2     1  LIG1        0.0000
      7 C7          1.7141    3.1964    1.9922 C.2     1  LIG1        0.0000
      8 C8          0.7259    4.0438    1.3525 C.ar    1  LIG1        0.0000
      9 C9          1.0487    4.5999    0.1181 C.ar    1  LIG1        0.0000
     10 C10         0.1354    5.4195   -0.5362 C.ar    1  LIG1        0.0000
     11 C11        -1.0949    5.6682    0.0634 C.ar    1  LIG1        0.0000
     12 C12        -1.3947    5.1001    1.2965 C.ar    1  LIG1        0.0000
     13 O13        -2.4515    5.1681    2.0815 O.2     1  LIG1        0.0000
     14 N14        -2.3297    4.4854    3.1443 N.2     1  LIG1        0.0000
     15 C15        -1.1536    3.9072    3.1531 C.2     1  LIG1        0.0000
     16 C16        -0.5045    4.2891    1.9569 C.ar    1  LIG1        0.0000
     17 H           1.0243    0.3366   -0.9706 H       1  LIG1        0.0000
     18 H           1.6582    1.8306   -0.7890 H       1  LIG1        0.0000
     19 H           2.5182    0.5182   -0.3366 H       1  LIG1        0.0000
     20 H           0.0834    1.3958    0.9434 H       1  LIG1        0.0000
     21 H           0.9434    0.0834    1.3958 H       1  LIG1        0.0000
     22 H           4.1850    2.3879    3.8436 H       1  LIG1        0.0000
     23 H           2.8638    4.5313    3.1694 H       1  LIG1        0.0000
     24 H           1.9378    4.4099   -0.2984 H       1  LIG1        0.0000
     25 H           0.3594    5.8235   -1.4232 H       1  LIG1        0.0000
     26 H          -1.7637    6.2555   -0.3924 H       1  LIG1        0.0000
     27 H          -0.7866    3.3114    3.8676 H       1  LIG1        0.0000
@<TRIPOS>BOND
     1     1     2    1
     2     2     3    1
     3     3     4    1
     4     4     5    2
     5     5     6    1
     6     6     7    2
     7     7     3    1
     8     7     8    1
     9     8     9   ar
    10     9    10   ar
    11    10    11   ar
    12    11    12   ar
    13    12    13    1
    14    13    14    1
    15    14    15    2
    16    15    16    1
    17    16     8   ar
    18    16    12   ar
    19     1    17    1
    20     1    18    1
    21     1    19    1
    22     2    20    1
    23     2    21    1
    24     5    22    1
    25     6    23    1
    26     9    24    1
    27    10    25    1
    28    11    26    1
    29    15    27    1
