@<TRIPOS>MOLECULE
*****
 27 29 0 0 0
SMALL
USER_CHARGES

@<TRIPOS>ATOM
      1 C1          1.6016    0.9140   -0.3932 C.3     1  LIG1        0.0000
      2 C2          1.0000    1.0000    1.0000 C.3     1  LIG1        0.0000
      3 N3          1.8491    1.8491    1.8491 N.pl3   1  LIG1        0.0000
      4 N4          3.1311    1.6734    2.0599 N.2     1  LIG1        0.0000
      5 C5          3.5950    2.6025    2.8628 C.2     1  LIG1        0.0000
      6 C6          2.5083    3.4433    3.1913 C.2     1  LIG1        0.0000
      7 C7          1.4215    2.9423    2.5389 C.2     1  LIG1        0.0000
      8 C8          0.0724    3.4741    2.5758 C.ar    1  LIG1        0.0000
      9 C9         -0.0814    4.8570    2.5459 C.ar    1  LIG1        0.0000
     10 C10        -1.3542    5.4166    2.5792 C.ar    1  LIG1        0.0000
     11 C11        -2.4583    4.5726    2.6416 C.ar    1  LIG1        0.0000
     12 C12        -2.2788    3.1941    2.6690 C.ar    1  LIG1        0.0000
     13 O13        -3.1208    2.1818    2.7342 O.2     1  LIG1        0.0000
     14 N14        -2.5443    1.0513    2.7333 N.2     1  LIG1        0.0000
     15 C15        -1.2470    1.2286    2.6771 C.2     1  LIG1        0.0000
     16 C16        -1.0294    2.6248    2.6376 C.ar    1  LIG1        0.0000
     17 H           1.0243    0.3366   -0.9706 H       1  LIG1        0.0000
     18 H           1.6582    1.8306   -0.7890 H       1  LIG1        0.0000
     19 H           2.5182    0.5182   -0.3366 H       1  LIG1        0.0000
     20 H           0.0834    1.3958    0.9434 H       1  LIG1        0.0000
     21 H           0.9434    0.0834    1.3958 H       1  LIG1        0.0000
     22 H           4.5382    2.6971    3.1813 H       1  LIG1        0.0000
     23 H           2.5318    4.2475    3.7853 H       1  LIG1        0.0000
     24 H           0.7236    5.4486    2.5006 H       1  LIG1        0.0000
     25 H          -1.4738    6.4092    2.5586 H       1  LIG1        0.0000
     26 H          -3.3810    4.9574    2.6667 H       1  LIG1        0.0000
     27 H          -0.5469    0.5147    2.6645 H       1  LIG1        0.0000
@<TRIPOS>BOND
     1     1     2    1
     2     2     3    1
     3     3     4    1
     4     4     5    2
     5     5     6    1
     6     6     7    2
     7     7     3    1
     8     7     8    1
     9     8     9   ar
    10     9    10   ar
    11    10    11   ar
    12    11    12   ar
    13    12    13    1
    14    13    14    1
    15    14    15    2
    16    15    16    1
    17    16     8   ar
    18    16    12   ar
    19     1    17    1
    20     1    18    1
    21     1    19    1
    22     2    20    1
    23     2    21    1
    24     5    22    1
    25     6    23    1
    26     9    24    1
    27    10    25    1
    28    11    26    1
    29    15    27    1
