@<TRIPOS>MOLECULE
*****
 27 29 0 0 0
SMALL
USER_CHARGES

@<TRIPOS>ATOM
      1 C1          1.6016    0.9140   -0.3932 C.3     1  LIG1        0.0000
      2 C2          1.0000    1.0000    1.0000 C.3     1  LIG1        0.0000
      3 N3          1.8491    1.8491    1.8491 N.pl3   1  LIG1        0.0000
      4 N4          2.3667    1.4967    3.0009 N.2     1  LIG1        0.0000
      5 C5          3.0755    2.4800    3.5047 C.2     1  LIG1        0.0000
      6 C6          2.9999    3.5535    2.5895 C.2     1  LIG1        0.0000
      7 C7          2.2190    3.1265    1.5572 C.2     1  LIG1        0.0000
      8 C8          1.8549    3.8891    0.3782 C.ar    1  LIG1        0.0000
      9 C9          2.8529    4.1606   -0.5532 C.ar    1  LIG1        0.0000
     10 C10         2.5548    4.8882   -1.7004 C.ar    1  LIG1        0.0000
     11 C11         1.2512    5.3332   -1.8946 C.ar    1  LIG1        0.0000
     12 C12         0.2714    5.0481   -0.9502 C.ar    1  LIG1        0.0000
     13 O13        -1.0111    5.3429   -0.8724 O.2     1  LIG1        0.0000
     14 N14        -1.5671    4.8838    0.1719 N.2     1  LIG1        0.0000
     15 C15        -0.6762    4.2439    0.8892 C.2     1  LIG1        0.0000
     16 C16         0.5483    4.3317    0.1883 C.ar    1  LIG1        0.0000
     17 H           1.0243    0.3366   -0.9706 H       1  LIG1        0.0000
     18 H           1.6582    1.8306   -0.7890 H       1  LIG1        0.0000
     19 H           2.5182    0.5182   -0.3366 H       1  LIG1        0.0000
     20 H           0.0834    1.3958    0.9434 H       1  LIG1        0.0000
     21 H           0.9434    0.0834    1.3958 H       1  LIG1        0.0000
     22 H           3.5741    2.4709    4.3715 H       1  LIG1        0.0000
     23 H           3.4338    4.4499    2.6809 H       1  LIG1        0.0000
     24 H           3.7845    3.8324   -0.3974 H       1  LIG1        0.0000
     25 H           3.2659    5.0881   -2.3745 H       1  LIG1        0.0000
     26 H           1.0189    5.8581   -2.7135 H       1  LIG1        0.0000
     27 H          -0.8323    3.7830    1.7628 H       1  LIG1        0.0000
@<TRIPOS>BOND
     1     1     2    1
     2     2     3    1
     3     3     4    1
     4     4     5    2
     5     5     6    1
     6     6     7    2
     7     7     3    1
     8     7     8    1
     9     8     9   ar
    10     9    10   ar
    11    10    11   ar
    12    11    12   ar
    13    12    13    1
    14    13    14    1
    15    14    15    2
    16    15    16    1
    17    16     8   ar
    18    16    12   ar
    19     1    17    1
    20     1    18    1
    21     1    19    1
    22     2    20    1
    23     2    21    1
    24     5    22    1
    25     6    23    1
    26     9    24    1
    27    10    25    1
    28    11    26    1
    29    15    27    1
