@<TRIPOS>MOLECULE
*****
 27 29 0 0 0
SMALL
USER_CHARGES

@<TRIPOS>ATOM
      1 C1          1.6016    0.9140   -0.3932 C.3     1  LIG1        0.0000
      2 C2          1.0000    1.0000    1.0000 C.3     1  LIG1        0.0000
      3 N3          1.8491    1.8491    1.8491 N.pl3   1  LIG1        0.0000
      4 N4          3.1311    1.6734    2.0599 N.2     1  LIG1        0.0000
      5 C5          3.5950    2.6025    2.8628 C.2     1  LIG1        0.0000
      6 C6          2.5083    3.4433    3.1913 C.2     1  LIG1        0.0000
      7 C7          1.4215    2.9423    2.5389 C.2     1  LIG1        0.0000
      8 C8          0.0724    3.4741    2.5758 C.ar    1  LIG1        0.0000
      9 C9         -0.4079    3.9420    3.7953 C.ar    1  LIG1        0.0000
     10 C10        -1.6950    4.4615    3.8833 C.ar    1  LIG1        0.0000
     11 C11        -2.4830    4.5033    2.7377 C.ar    1  LIG1        0.0000
     12 C12        -1.9801    4.0309    1.5305 C.ar    1  LIG1        0.0000
     13 O13        -2.4930    3.9418    0.3194 O.2     1  LIG1        0.0000
     14 N14        -1.6904    3.4439   -0.5281 N.2     1  LIG1        0.0000
     15 C15        -0.5619    3.1475    0.0689 C.2     1  LIG1        0.0000
     16 C16        -0.7120    3.5141    1.4259 C.ar    1  LIG1        0.0000
     17 H           1.0243    0.3366   -0.9706 H       1  LIG1        0.0000
     18 H           1.6582    1.8306   -0.7890 H       1  LIG1        0.0000
     19 H           2.5182    0.5182   -0.3366 H       1  LIG1        0.0000
     20 H           0.0834    1.3958    0.9434 H       1  LIG1        0.0000
     21 H           0.9434    0.0834    1.3958 H       1  LIG1        0.0000
     22 H           4.5382    2.6971    3.1813 H       1  LIG1        0.0000
     23 H           2.5318    4.2475    3.7853 H       1  LIG1        0.0000
     24 H           0.1727    3.9047    4.6087 H       1  LIG1        0.0000
     25 H          -2.0482    4.7995    4.7557 H       1  LIG1        0.0000
     26 H          -3.4111    4.8730    2.7823 H       1  LIG1        0.0000
     27 H           0.2482    2.7409   -0.3536 H       1  LIG1        0.0000
@<TRIPOS>BOND
     1     1     2    1
     2     2     3    1
     3     3     4    1
     4     4     5    2
     5     5     6    1
     6     6     7    2
     7     7     3    1
     8     7     8    1
     9     8     9   ar
    10     9    10   ar
    11    10    11   ar
    12    11    12   ar
    13    12    13    1
    14    13    14    1
    15    14    15    2
    16    15    16    1
    17    16     8   ar
    18    16    12   ar
    19     1    17    1
    20     1    18    1
    21     1    19    1
    22     2    20    1
    23     2    21    1
    24     5    22    1
    25     6    23    1
    26     9    24    1
    27    10    25    1
    28    11    26    1
    29    15    27    1
