@<TRIPOS>MOLECULE
*****
 27 29 0 0 0
SMALL
USER_CHARGES

@<TRIPOS>ATOM
      1 C1          1.6016    0.9140   -0.3932 C.3     1  LIG1        0.0000
      2 C2          1.0000    1.0000    1.0000 C.3     1  LIG1        0.0000
      3 N3          1.8491    1.8491    1.8491 N.pl3   1  LIG1        0.0000
      4 N4          1.7256    3.1464    1.9923 N.2     1  LIG1        0.0000
      5 C5          2.6353    3.6046    2.8203 C.2     1  LIG1        0.0000
      6 C6          3.4060    2.4973    3.2396 C.2     1  LIG1        0.0000
      7 C7          2.8877    1.4055    2.6096 C.2     1  LIG1        0.0000
      8 C8          3.3556    0.0377    2.7290 C.ar    1  LIG1        0.0000
      9 C9          2.4132   -0.9495    3.0017 C.ar    1  LIG1        0.0000
     10 C10         2.8110   -2.2764    3.1257 C.ar    1  LIG1        0.0000
     11 C11         4.1571   -2.5918    2.9721 C.ar    1  LIG1        0.0000
     12 C12         5.0795   -1.5880    2.6986 C.ar    1  LIG1        0.0000
     13 O13         6.3852   -1.5958    2.5170 O.2     1  LIG1        0.0000
     14 N14         6.8640   -0.4446    2.2808 N.2     1  LIG1        0.0000
     15 C15         5.8949    0.4376    2.2980 C.2     1  LIG1        0.0000
     16 C16         4.7042   -0.2728    2.5737 C.ar    1  LIG1        0.0000
     17 H           1.0243    0.3366   -0.9706 H       1  LIG1        0.0000
     18 H           1.6582    1.8306   -0.7890 H       1  LIG1        0.0000
     19 H           2.5182    0.5182   -0.3366 H       1  LIG1        0.0000
     20 H           0.0834    1.3958    0.9434 H       1  LIG1        0.0000
     21 H           0.9434    0.0834    1.3958 H       1  LIG1        0.0000
     22 H           2.7593    4.5564    3.1008 H       1  LIG1        0.0000
     23 H           4.1792    2.5118    3.8736 H       1  LIG1        0.0000
     24 H           1.4495   -0.7046    3.1086 H       1  LIG1        0.0000
     25 H           2.1405   -2.9918    3.3220 H       1  LIG1        0.0000
     26 H           4.4614   -3.5405    3.0583 H       1  LIG1        0.0000
     27 H           5.9810    1.4221    2.1457 H       1  LIG1        0.0000
@<TRIPOS>BOND
     1     1     2    1
     2     2     3    1
     3     3     4    1
     4     4     5    2
     5     5     6    1
     6     6     7    2
     7     7     3    1
     8     7     8    1
     9     8     9   ar
    10     9    10   ar
    11    10    11   ar
    12    11    12   ar
    13    12    13    1
    14    13    14    1
    15    14    15    2
    16    15    16    1
    17    16     8   ar
    18    16    12   ar
    19     1    17    1
    20     1    18    1
    21     1    19    1
    22     2    20    1
    23     2    21    1
    24     5    22    1
    25     6    23    1
    26     9    24    1
    27    10    25    1
    28    11    26    1
    29    15    27    1
