@<TRIPOS>MOLECULE

  28   29
SMALL
USER_CHARGES
@<TRIPOS>ATOM
   1 C1           3.7226    -0.7135    -0.0371 C.3          1    LIG   0.0000
   2 C2           2.3942     0.0256    -0.0208 C.ar         1    LIG   0.0000
   3 C3           1.2035    -0.6939    -0.0136 C.ar         1    LIG   0.0000
   4 C4          -0.0097    -0.0127     0.0013 C.ar         1    LIG   0.0000
   5 C5          -0.0266     1.3786     0.0091 C.ar         1    LIG   0.0000
   6 N6          -1.2472     2.0637     0.0238 N.pl3        1    LIG   0.0000
   7 N7          -2.1616     1.9630     0.9594 N.2          1    LIG   0.0000
   8 C8          -3.1776     2.7376     0.6632 C.2          1    LIG   0.0000
   9 C9          -4.4394     2.9043     1.4951 C.3          1    LIG   0.0000
  10 F10         -4.1271     2.8630     2.7873 F            1    LIG   0.0000
  11 F11         -5.0051     4.0744     1.2129 F            1    LIG   0.0000
  12 F12         -5.2896     1.9213     1.2129 F            1    LIG   0.0000
  13 C13         -2.9026     3.3937    -0.5547 C.2          1    LIG   0.0000
  14 C14         -1.6749     2.9395    -0.9268 C.2          1    LIG   0.0000
  15 O15         -1.0003     3.2963    -2.0408 O.3          1    LIG  -1.0000
  16 C16          1.1703     2.0892     0.0015 C.ar         1    LIG   0.0000
  17 C17          1.1769     3.6094     0.0097 C.3          1    LIG   0.0000
  18 C18          2.3878     1.4166    -0.0132 C.ar         1    LIG   0.0000
  19 H            3.5554    -1.6994    -0.0409 H            1    LIG   0.0000
  20 H            4.2355    -0.4592    -0.8571 H            1    LIG   0.0000
  21 H            4.2506    -0.4681     0.7758 H            1    LIG   0.0000
  22 H            1.2195    -1.6937    -0.0191 H            1    LIG   0.0000
  23 H           -0.8696    -0.5231     0.0063 H            1    LIG   0.0000
  24 H           -3.4826     4.0489    -1.0387 H            1    LIG   0.0000
  25 H            2.1211     3.9386     0.0025 H            1    LIG   0.0000
  26 H            0.6992     3.9492    -0.8004 H            1    LIG   0.0000
  27 H            0.7148     3.9403     0.8325 H            1    LIG   0.0000
  28 H            3.2479     1.9267    -0.0183 H            1    LIG   0.0000
@<TRIPOS>BOND
   1        1        2 1
   2        2        3 ar
   3        3        4 ar
   4        4        5 ar
   5        5        6 1
   6        6        7 1
   7        7        8 2
   8        8        9 1
   9        9       10 1
  10        9       11 1
  11        9       12 1
  12        8       13 1
  13       13       14 2
  14       14        6 1
  15       14       15 1
  16        5       16 ar
  17       16       17 1
  18       16       18 ar
  19       18        2 ar
  20        1       19 1
  21        1       20 1
  22        1       21 1
  23        3       22 1
  24        4       23 1
  25       13       24 1
  26       17       25 1
  27       17       26 1
  28       17       27 1
  29       18       28 1

@<TRIPOS>MOLECULE

  28   29
SMALL
USER_CHARGES
@<TRIPOS>ATOM
   1 C1           3.7226    -0.7135    -0.0371 C.3          1    LIG   0.0000
   2 C2           2.3942     0.0256    -0.0208 C.ar         1    LIG   0.0000
   3 C3           1.2035    -0.6939    -0.0136 C.ar         1    LIG   0.0000
   4 C4          -0.0097    -0.0127     0.0013 C.ar         1    LIG   0.0000
   5 C5          -0.0266     1.3786     0.0091 C.ar         1    LIG   0.0000
   6 N6          -1.2472     2.0637     0.0238 N.pl3        1    LIG   0.0000
   7 N7          -2.0780     2.1102     1.0383 N.2          1    LIG   0.0000
   8 C8          -3.1220     2.8357     0.7158 C.2          1    LIG   0.0000
   9 C9          -4.3099     3.1324     1.6173 C.3          1    LIG   0.0000
  10 F10         -3.9169     3.1178     2.8878 F            1    LIG   0.0000
  11 F11         -4.8038     4.3309     1.3197 F            1    LIG   0.0000
  12 F12         -5.2482     2.2080     1.4328 F            1    LIG   0.0000
  13 C13         -2.9567     3.2984    -0.6063 C.2          1    LIG   0.0000
  14 C14         -1.7613     2.7874    -1.0085 C.2          1    LIG   0.0000
  15 O15         -1.1866     2.9682    -2.2170 O.3          1    LIG  -1.0000
  16 C16          1.1703     2.0892     0.0015 C.ar         1    LIG   0.0000
  17 C17          1.1769     3.6094     0.0097 C.3          1    LIG   0.0000
  18 C18          2.3878     1.4166    -0.0132 C.ar         1    LIG   0.0000
  19 H            3.5554    -1.6994    -0.0409 H            1    LIG   0.0000
  20 H            4.2355    -0.4592    -0.8571 H            1    LIG   0.0000
  21 H            4.2506    -0.4681     0.7758 H            1    LIG   0.0000
  22 H            1.2195    -1.6937    -0.0191 H            1    LIG   0.0000
  23 H           -0.8696    -0.5231     0.0063 H            1    LIG   0.0000
  24 H           -3.5811     3.8754    -1.1327 H            1    LIG   0.0000
  25 H            2.1211     3.9386     0.0025 H            1    LIG   0.0000
  26 H            0.6992     3.9492    -0.8004 H            1    LIG   0.0000
  27 H            0.7148     3.9403     0.8325 H            1    LIG   0.0000
  28 H            3.2479     1.9267    -0.0183 H            1    LIG   0.0000
@<TRIPOS>BOND
   1        1        2 1
   2        2        3 ar
   3        3        4 ar
   4        4        5 ar
   5        5        6 1
   6        6        7 1
   7        7        8 2
   8        8        9 1
   9        9       10 1
  10        9       11 1
  11        9       12 1
  12        8       13 1
  13       13       14 2
  14       14        6 1
  15       14       15 1
  16        5       16 ar
  17       16       17 1
  18       16       18 ar
  19       18        2 ar
  20        1       19 1
  21        1       20 1
  22        1       21 1
  23        3       22 1
  24        4       23 1
  25       13       24 1
  26       17       25 1
  27       17       26 1
  28       17       27 1
  29       18       28 1

@<TRIPOS>MOLECULE

  28   29
SMALL
USER_CHARGES
@<TRIPOS>ATOM
   1 C1           3.7226    -0.7135    -0.0371 C.3          1    LIG   0.0000
   2 C2           2.3942     0.0256    -0.0208 C.ar         1    LIG   0.0000
   3 C3           1.2035    -0.6939    -0.0136 C.ar         1    LIG   0.0000
   4 C4          -0.0097    -0.0127     0.0013 C.ar         1    LIG   0.0000
   5 C5          -0.0266     1.3786     0.0091 C.ar         1    LIG   0.0000
   6 N6          -1.2472     2.0637     0.0238 N.pl3        1    LIG   0.0000
   7 N7          -1.8981     2.4293     1.1028 N.2          1    LIG   0.0000
   8 C8          -3.0020     3.0484     0.7590 C.2          1    LIG   0.0000
   9 C9          -4.0311     3.6270     1.7172 C.3          1    LIG   0.0000
  10 F10         -3.5219     3.6638     2.9453 F            1    LIG   0.0000
  11 F11         -4.3512     4.8593     1.3328 F            1    LIG   0.0000
  12 F12         -5.1204     2.8639     1.7116 F            1    LIG   0.0000
  13 C13         -3.0733     3.0915    -0.6490 C.2          1    LIG   0.0000
  14 C14         -1.9473     2.4574    -1.0755 C.2          1    LIG   0.0000
  15 O15         -1.5879     2.2564    -2.3616 O.3          1    LIG  -1.0000
  16 C16          1.1703     2.0892     0.0015 C.ar         1    LIG   0.0000
  17 C17          1.1769     3.6094     0.0097 C.3          1    LIG   0.0000
  18 C18          2.3878     1.4166    -0.0132 C.ar         1    LIG   0.0000
  19 H            3.5554    -1.6994    -0.0409 H            1    LIG   0.0000
  20 H            4.2355    -0.4592    -0.8571 H            1    LIG   0.0000
  21 H            4.2506    -0.4681     0.7758 H            1    LIG   0.0000
  22 H            1.2195    -1.6937    -0.0191 H            1    LIG   0.0000
  23 H           -0.8696    -0.5231     0.0063 H            1    LIG   0.0000
  24 H           -3.7934     3.4988    -1.2108 H            1    LIG   0.0000
  25 H            2.1211     3.9386     0.0025 H            1    LIG   0.0000
  26 H            0.6992     3.9492    -0.8004 H            1    LIG   0.0000
  27 H            0.7148     3.9403     0.8325 H            1    LIG   0.0000
  28 H            3.2479     1.9267    -0.0183 H            1    LIG   0.0000
@<TRIPOS>BOND
   1        1        2 1
   2        2        3 ar
   3        3        4 ar
   4        4        5 ar
   5        5        6 1
   6        6        7 1
   7        7        8 2
   8        8        9 1
   9        9       10 1
  10        9       11 1
  11        9       12 1
  12        8       13 1
  13       13       14 2
  14       14        6 1
  15       14       15 1
  16        5       16 ar
  17       16       17 1
  18       16       18 ar
  19       18        2 ar
  20        1       19 1
  21        1       20 1
  22        1       21 1
  23        3       22 1
  24        4       23 1
  25       13       24 1
  26       17       25 1
  27       17       26 1
  28       17       27 1
  29       18       28 1

@<TRIPOS>MOLECULE

  28   29
SMALL
USER_CHARGES
@<TRIPOS>ATOM
   1 C1           3.7226    -0.7135    -0.0371 C.3          1    LIG   0.0000
   2 C2           2.3942     0.0256    -0.0208 C.ar         1    LIG   0.0000
   3 C3           1.2035    -0.6939    -0.0136 C.ar         1    LIG   0.0000
   4 C4          -0.0097    -0.0127     0.0013 C.ar         1    LIG   0.0000
   5 C5          -0.0266     1.3786     0.0091 C.ar         1    LIG   0.0000
   6 N6          -1.2472     2.0637     0.0238 N.pl3        1    LIG   0.0000
   7 N7          -1.3838     3.3686     0.0315 N.2          1    LIG   0.0000
   8 C8          -2.6590     3.6749     0.0451 C.2          1    LIG   0.0000
   9 C9          -3.2342     5.0824     0.0568 C.3          1    LIG   0.0000
  10 F10         -3.0047     5.6453     1.2397 F            1    LIG   0.0000
  11 F11         -2.6560     5.8055    -0.8980 F            1    LIG   0.0000
  12 F12         -4.5451     5.0274    -0.1612 F            1    LIG   0.0000
  13 C13         -3.4083     2.4799     0.0431 C.2          1    LIG   0.0000
  14 C14         -2.4797     1.4853     0.0314 C.2          1    LIG   0.0000
  15 O15         -2.7362     0.1594     0.0263 O.3          1    LIG  -1.0000
  16 C16          1.1703     2.0892     0.0015 C.ar         1    LIG   0.0000
  17 C17          1.1769     3.6094     0.0097 C.3          1    LIG   0.0000
  18 C18          2.3878     1.4166    -0.0132 C.ar         1    LIG   0.0000
  19 H            3.5554    -1.6994    -0.0409 H            1    LIG   0.0000
  20 H            4.2355    -0.4592    -0.8571 H            1    LIG   0.0000
  21 H            4.2506    -0.4681     0.7758 H            1    LIG   0.0000
  22 H            1.2195    -1.6937    -0.0191 H            1    LIG   0.0000
  23 H           -0.8696    -0.5231     0.0063 H            1    LIG   0.0000
  24 H           -4.4037     2.3846     0.0491 H            1    LIG   0.0000
  25 H            2.1211     3.9386     0.0025 H            1    LIG   0.0000
  26 H            0.6992     3.9492    -0.8004 H            1    LIG   0.0000
  27 H            0.7148     3.9403     0.8325 H            1    LIG   0.0000
  28 H            3.2479     1.9267    -0.0183 H            1    LIG   0.0000
@<TRIPOS>BOND
   1        1        2 1
   2        2        3 ar
   3        3        4 ar
   4        4        5 ar
   5        5        6 1
   6        6        7 1
   7        7        8 2
   8        8        9 1
   9        9       10 1
  10        9       11 1
  11        9       12 1
  12        8       13 1
  13       13       14 2
  14       14        6 1
  15       14       15 1
  16        5       16 ar
  17       16       17 1
  18       16       18 ar
  19       18        2 ar
  20        1       19 1
  21        1       20 1
  22        1       21 1
  23        3       22 1
  24        4       23 1
  25       13       24 1
  26       17       25 1
  27       17       26 1
  28       17       27 1
  29       18       28 1

@<TRIPOS>MOLECULE

  28   29
SMALL
USER_CHARGES
@<TRIPOS>ATOM
   1 C1           3.7226    -0.7135    -0.0371 C.3          1    LIG   0.0000
   2 C2           2.3942     0.0256    -0.0208 C.ar         1    LIG   0.0000
   3 C3           1.2035    -0.6939    -0.0136 C.ar         1    LIG   0.0000
   4 C4          -0.0097    -0.0127     0.0013 C.ar         1    LIG   0.0000
   5 C5          -0.0266     1.3786     0.0091 C.ar         1    LIG   0.0000
   6 N6          -1.2472     2.0637     0.0238 N.pl3        1    LIG   0.0000
   7 N7          -1.3934     3.3553    -0.1545 N.2          1    LIG   0.0000
   8 C8          -2.6654     3.6661    -0.0789 C.2          1    LIG   0.0000
   9 C9          -3.2492     5.0618    -0.2314 C.3          1    LIG   0.0000
  10 F10         -3.1387     5.7169     0.9207 F            1    LIG   0.0000
  11 F11         -2.5870     5.7181    -1.1799 F            1    LIG   0.0000
  12 F12         -4.5326     4.9710    -0.5685 F            1    LIG   0.0000
  13 C13         -3.4022     2.4881     0.1638 C.2          1    LIG   0.0000
  14 C14         -2.4698     1.4988     0.2237 C.2          1    LIG   0.0000
  15 O15         -2.7147     0.1888     0.4412 O.3          1    LIG  -1.0000
  16 C16          1.1703     2.0892     0.0015 C.ar         1    LIG   0.0000
  17 C17          1.1769     3.6094     0.0097 C.3          1    LIG   0.0000
  18 C18          2.3878     1.4166    -0.0132 C.ar         1    LIG   0.0000
  19 H            3.5554    -1.6994    -0.0409 H            1    LIG   0.0000
  20 H            4.2355    -0.4592    -0.8571 H            1    LIG   0.0000
  21 H            4.2506    -0.4681     0.7758 H            1    LIG   0.0000
  22 H            1.2195    -1.6937    -0.0191 H            1    LIG   0.0000
  23 H           -0.8696    -0.5231     0.0063 H            1    LIG   0.0000
  24 H           -4.3927     2.3994     0.2688 H            1    LIG   0.0000
  25 H            2.1211     3.9386     0.0025 H            1    LIG   0.0000
  26 H            0.6992     3.9492    -0.8004 H            1    LIG   0.0000
  27 H            0.7148     3.9403     0.8325 H            1    LIG   0.0000
  28 H            3.2479     1.9267    -0.0183 H            1    LIG   0.0000
@<TRIPOS>BOND
   1        1        2 1
   2        2        3 ar
   3        3        4 ar
   4        4        5 ar
   5        5        6 1
   6        6        7 1
   7        7        8 2
   8        8        9 1
   9        9       10 1
  10        9       11 1
  11        9       12 1
  12        8       13 1
  13       13       14 2
  14       14        6 1
  15       14       15 1
  16        5       16 ar
  17       16       17 1
  18       16       18 ar
  19       18        2 ar
  20        1       19 1
  21        1       20 1
  22        1       21 1
  23        3       22 1
  24        4       23 1
  25       13       24 1
  26       17       25 1
  27       17       26 1
  28       17       27 1
  29       18       28 1

@<TRIPOS>MOLECULE

  28   29
SMALL
USER_CHARGES
@<TRIPOS>ATOM
   1 C1           3.7226    -0.7135    -0.0371 C.3          1    LIG   0.0000
   2 C2           2.3942     0.0256    -0.0208 C.ar         1    LIG   0.0000
   3 C3           1.2035    -0.6939    -0.0136 C.ar         1    LIG   0.0000
   4 C4          -0.0097    -0.0127     0.0013 C.ar         1    LIG   0.0000
   5 C5          -0.0266     1.3786     0.0091 C.ar         1    LIG   0.0000
   6 N6          -1.2472     2.0637     0.0238 N.pl3        1    LIG   0.0000
   7 N7          -1.3900     3.3535     0.2175 N.2          1    LIG   0.0000
   8 C8          -2.6632     3.6648     0.1691 C.2          1    LIG   0.0000
   9 C9          -3.2438     5.0590     0.3450 C.3          1    LIG   0.0000
  10 F10         -2.9136     5.5287     1.5447 F            1    LIG   0.0000
  11 F11         -2.7573     5.8638    -0.5955 F            1    LIG   0.0000
  12 F12         -4.5685     5.0041     0.2396 F            1    LIG   0.0000
  13 C13         -3.4040     2.4901    -0.0775 C.2          1    LIG   0.0000
  14 C14         -2.4731     1.5010    -0.1610 C.2          1    LIG   0.0000
  15 O15         -2.7221     0.1934    -0.3885 O.3          1    LIG  -1.0000
  16 C16          1.1703     2.0892     0.0015 C.ar         1    LIG   0.0000
  17 C17          1.1769     3.6094     0.0097 C.3          1    LIG   0.0000
  18 C18          2.3878     1.4166    -0.0132 C.ar         1    LIG   0.0000
  19 H            3.5554    -1.6994    -0.0409 H            1    LIG   0.0000
  20 H            4.2355    -0.4592    -0.8571 H            1    LIG   0.0000
  21 H            4.2506    -0.4681     0.7758 H            1    LIG   0.0000
  22 H            1.2195    -1.6937    -0.0191 H            1    LIG   0.0000
  23 H           -0.8696    -0.5231     0.0063 H            1    LIG   0.0000
  24 H           -4.3958     2.4033    -0.1705 H            1    LIG   0.0000
  25 H            2.1211     3.9386     0.0025 H            1    LIG   0.0000
  26 H            0.6992     3.9492    -0.8004 H            1    LIG   0.0000
  27 H            0.7148     3.9403     0.8325 H            1    LIG   0.0000
  28 H            3.2479     1.9267    -0.0183 H            1    LIG   0.0000
@<TRIPOS>BOND
   1        1        2 1
   2        2        3 ar
   3        3        4 ar
   4        4        5 ar
   5        5        6 1
   6        6        7 1
   7        7        8 2
   8        8        9 1
   9        9       10 1
  10        9       11 1
  11        9       12 1
  12        8       13 1
  13       13       14 2
  14       14        6 1
  15       14       15 1
  16        5       16 ar
  17       16       17 1
  18       16       18 ar
  19       18        2 ar
  20        1       19 1
  21        1       20 1
  22        1       21 1
  23        3       22 1
  24        4       23 1
  25       13       24 1
  26       17       25 1
  27       17       26 1
  28       17       27 1
  29       18       28 1

@<TRIPOS>MOLECULE

  28   29
SMALL
USER_CHARGES
@<TRIPOS>ATOM
   1 C1           3.7226    -0.7135    -0.0371 C.3          1    LIG   0.0000
   2 C2           2.3942     0.0256    -0.0208 C.ar         1    LIG   0.0000
   3 C3           1.2035    -0.6939    -0.0136 C.ar         1    LIG   0.0000
   4 C4          -0.0097    -0.0127     0.0013 C.ar         1    LIG   0.0000
   5 C5          -0.0266     1.3786     0.0091 C.ar         1    LIG   0.0000
   6 N6          -1.2472     2.0637     0.0238 N.pl3        1    LIG   0.0000
   7 N7          -1.4188     3.3141    -0.3348 N.2          1    LIG   0.0000
   8 C8          -2.6822     3.6387    -0.1991 C.2          1    LIG   0.0000
   9 C9          -3.2885     4.9978    -0.5109 C.3          1    LIG   0.0000
  10 F10         -3.3139     5.7361     0.5951 F            1    LIG   0.0000
  11 F11         -2.5537     5.6094    -1.4355 F            1    LIG   0.0000
  12 F12         -4.5281     4.8367    -0.9649 F            1    LIG   0.0000
  13 C13         -3.3860     2.5145     0.2809 C.2          1    LIG   0.0000
  14 C14         -2.4436     1.5414     0.4102 C.2          1    LIG   0.0000
  15 O15         -2.6584     0.2805     0.8436 O.3          1    LIG  -1.0000
  16 C16          1.1703     2.0892     0.0015 C.ar         1    LIG   0.0000
  17 C17          1.1769     3.6094     0.0097 C.3          1    LIG   0.0000
  18 C18          2.3878     1.4166    -0.0132 C.ar         1    LIG   0.0000
  19 H            3.5554    -1.6994    -0.0409 H            1    LIG   0.0000
  20 H            4.2355    -0.4592    -0.8571 H            1    LIG   0.0000
  21 H            4.2506    -0.4681     0.7758 H            1    LIG   0.0000
  22 H            1.2195    -1.6937    -0.0191 H            1    LIG   0.0000
  23 H           -0.8696    -0.5231     0.0063 H            1    LIG   0.0000
  24 H           -4.3633     2.4473     0.4820 H            1    LIG   0.0000
  25 H            2.1211     3.9386     0.0025 H            1    LIG   0.0000
  26 H            0.6992     3.9492    -0.8004 H            1    LIG   0.0000
  27 H            0.7148     3.9403     0.8325 H            1    LIG   0.0000
  28 H            3.2479     1.9267    -0.0183 H            1    LIG   0.0000
@<TRIPOS>BOND
   1        1        2 1
   2        2        3 ar
   3        3        4 ar
   4        4        5 ar
   5        5        6 1
   6        6        7 1
   7        7        8 2
   8        8        9 1
   9        9       10 1
  10        9       11 1
  11        9       12 1
  12        8       13 1
  13       13       14 2
  14       14        6 1
  15       14       15 1
  16        5       16 ar
  17       16       17 1
  18       16       18 ar
  19       18        2 ar
  20        1       19 1
  21        1       20 1
  22        1       21 1
  23        3       22 1
  24        4       23 1
  25       13       24 1
  26       17       25 1
  27       17       26 1
  28       17       27 1
  29       18       28 1

@<TRIPOS>MOLECULE

  28   29
SMALL
USER_CHARGES
@<TRIPOS>ATOM
   1 C1           3.7226    -0.7135    -0.0371 C.3          1    LIG   0.0000
   2 C2           2.3942     0.0256    -0.0208 C.ar         1    LIG   0.0000
   3 C3           1.2035    -0.6939    -0.0136 C.ar         1    LIG   0.0000
   4 C4          -0.0097    -0.0127     0.0013 C.ar         1    LIG   0.0000
   5 C5          -0.0266     1.3786     0.0091 C.ar         1    LIG   0.0000
   6 N6          -1.2472     2.0637     0.0238 N.pl3        1    LIG   0.0000
   7 N7          -1.4120     3.3105     0.3978 N.2          1    LIG   0.0000
   8 C8          -2.6778     3.6360     0.2893 C.2          1    LIG   0.0000
   9 C9          -3.2779     4.9923     0.6245 C.3          1    LIG   0.0000
  10 F10         -2.8655     5.3739     1.8300 F            1    LIG   0.0000
  11 F11         -2.8881     5.8855    -0.2806 F            1    LIG   0.0000
  12 F12         -4.6049     4.9040     0.6172 F            1    LIG   0.0000
  13 C13         -3.3895     2.5184    -0.1943 C.2          1    LIG   0.0000
  14 C14         -2.4503     1.5457    -0.3474 C.2          1    LIG   0.0000
  15 O15         -2.6729     0.2897    -0.7907 O.3          1    LIG  -1.0000
  16 C16          1.1703     2.0892     0.0015 C.ar         1    LIG   0.0000
  17 C17          1.1769     3.6094     0.0097 C.3          1    LIG   0.0000
  18 C18          2.3878     1.4166    -0.0132 C.ar         1    LIG   0.0000
  19 H            3.5554    -1.6994    -0.0409 H            1    LIG   0.0000
  20 H            4.2355    -0.4592    -0.8571 H            1    LIG   0.0000
  21 H            4.2506    -0.4681     0.7758 H            1    LIG   0.0000
  22 H            1.2195    -1.6937    -0.0191 H            1    LIG   0.0000
  23 H           -0.8696    -0.5231     0.0063 H            1    LIG   0.0000
  24 H           -4.3694     2.4549    -0.3833 H            1    LIG   0.0000
  25 H            2.1211     3.9386     0.0025 H            1    LIG   0.0000
  26 H            0.6992     3.9492    -0.8004 H            1    LIG   0.0000
  27 H            0.7148     3.9403     0.8325 H            1    LIG   0.0000
  28 H            3.2479     1.9267    -0.0183 H            1    LIG   0.0000
@<TRIPOS>BOND
   1        1        2 1
   2        2        3 ar
   3        3        4 ar
   4        4        5 ar
   5        5        6 1
   6        6        7 1
   7        7        8 2
   8        8        9 1
   9        9       10 1
  10        9       11 1
  11        9       12 1
  12        8       13 1
  13       13       14 2
  14       14        6 1
  15       14       15 1
  16        5       16 ar
  17       16       17 1
  18       16       18 ar
  19       18        2 ar
  20        1       19 1
  21        1       20 1
  22        1       21 1
  23        3       22 1
  24        4       23 1
  25       13       24 1
  26       17       25 1
  27       17       26 1
  28       17       27 1
  29       18       28 1

@<TRIPOS>MOLECULE

  28   29
SMALL
USER_CHARGES
@<TRIPOS>ATOM
   1 C1           3.7226    -0.7135    -0.0371 C.3          1    LIG   0.0000
   2 C2           2.3942     0.0256    -0.0208 C.ar         1    LIG   0.0000
   3 C3           1.2035    -0.6939    -0.0136 C.ar         1    LIG   0.0000
   4 C4          -0.0097    -0.0127     0.0013 C.ar         1    LIG   0.0000
   5 C5          -0.0266     1.3786     0.0091 C.ar         1    LIG   0.0000
   6 N6          -1.2472     2.0637     0.0238 N.pl3        1    LIG   0.0000
   7 N7          -2.1787     1.9721    -0.8957 N.2          1    LIG   0.0000
   8 C8          -3.1888     2.7442    -0.5735 C.2          1    LIG   0.0000
   9 C9          -4.4662     2.9181    -1.3797 C.3          1    LIG   0.0000
  10 F10         -5.4974     3.0585    -0.5515 F            1    LIG   0.0000
  11 F11         -4.3628     3.9999    -2.1464 F            1    LIG   0.0000
  12 F12         -4.6558     1.8479    -2.1463 F            1    LIG   0.0000
  13 C13         -2.8937     3.3837     0.6485 C.2          1    LIG   0.0000
  14 C14         -1.6580     2.9286     0.9916 C.2          1    LIG   0.0000
  15 O15         -0.9636     3.2732     2.0974 O.3          1    LIG  -1.0000
  16 C16          1.1703     2.0892     0.0015 C.ar         1    LIG   0.0000
  17 C17          1.1769     3.6094     0.0097 C.3          1    LIG   0.0000
  18 C18          2.3878     1.4166    -0.0132 C.ar         1    LIG   0.0000
  19 H            3.5554    -1.6994    -0.0409 H            1    LIG   0.0000
  20 H            4.2355    -0.4592    -0.8571 H            1    LIG   0.0000
  21 H            4.2506    -0.4681     0.7758 H            1    LIG   0.0000
  22 H            1.2195    -1.6937    -0.0191 H            1    LIG   0.0000
  23 H           -0.8696    -0.5231     0.0063 H            1    LIG   0.0000
  24 H           -3.4670     4.0298     1.1524 H            1    LIG   0.0000
  25 H            2.1211     3.9386     0.0025 H            1    LIG   0.0000
  26 H            0.6992     3.9492    -0.8004 H            1    LIG   0.0000
  27 H            0.7148     3.9403     0.8325 H            1    LIG   0.0000
  28 H            3.2479     1.9267    -0.0183 H            1    LIG   0.0000
@<TRIPOS>BOND
   1        1        2 1
   2        2        3 ar
   3        3        4 ar
   4        4        5 ar
   5        5        6 1
   6        6        7 1
   7        7        8 2
   8        8        9 1
   9        9       10 1
  10        9       11 1
  11        9       12 1
  12        8       13 1
  13       13       14 2
  14       14        6 1
  15       14       15 1
  16        5       16 ar
  17       16       17 1
  18       16       18 ar
  19       18        2 ar
  20        1       19 1
  21        1       20 1
  22        1       21 1
  23        3       22 1
  24        4       23 1
  25       13       24 1
  26       17       25 1
  27       17       26 1
  28       17       27 1
  29       18       28 1

@<TRIPOS>MOLECULE

  28   29
SMALL
USER_CHARGES
@<TRIPOS>ATOM
   1 C1           3.7226    -0.7135    -0.0371 C.3          1    LIG   0.0000
   2 C2           2.3942     0.0256    -0.0208 C.ar         1    LIG   0.0000
   3 C3           1.2035    -0.6939    -0.0136 C.ar         1    LIG   0.0000
   4 C4          -0.0097    -0.0127     0.0013 C.ar         1    LIG   0.0000
   5 C5          -0.0266     1.3786     0.0091 C.ar         1    LIG   0.0000
   6 N6          -1.2472     2.0637     0.0238 N.pl3        1    LIG   0.0000
   7 N7          -2.0966     2.1201    -0.9747 N.2          1    LIG   0.0000
   8 C8          -3.1340     2.8429    -0.6261 C.2          1    LIG   0.0000
   9 C9          -4.3390     3.1473    -1.5020 C.3          1    LIG   0.0000
  10 F10         -5.3915     3.4101    -0.7325 F            1    LIG   0.0000
  11 F11         -4.0752     4.2023    -2.2677 F            1    LIG   0.0000
  12 F12         -4.6043     2.0959    -2.2721 F            1    LIG   0.0000
  13 C13         -2.9471     3.2875     0.6993 C.2          1    LIG   0.0000
  14 C14         -1.7429     2.7756     1.0731 C.2          1    LIG   0.0000
  15 O15         -1.1468     2.9430     2.2732 O.3          1    LIG  -1.0000
  16 C16          1.1703     2.0892     0.0015 C.ar         1    LIG   0.0000
  17 C17          1.1769     3.6094     0.0097 C.3          1    LIG   0.0000
  18 C18          2.3878     1.4166    -0.0132 C.ar         1    LIG   0.0000
  19 H            3.5554    -1.6994    -0.0409 H            1    LIG   0.0000
  20 H            4.2355    -0.4592    -0.8571 H            1    LIG   0.0000
  21 H            4.2506    -0.4681     0.7758 H            1    LIG   0.0000
  22 H            1.2195    -1.6937    -0.0191 H            1    LIG   0.0000
  23 H           -0.8696    -0.5231     0.0063 H            1    LIG   0.0000
  24 H           -3.5642     3.8547     1.2448 H            1    LIG   0.0000
  25 H            2.1211     3.9386     0.0025 H            1    LIG   0.0000
  26 H            0.6992     3.9492    -0.8004 H            1    LIG   0.0000
  27 H            0.7148     3.9403     0.8325 H            1    LIG   0.0000
  28 H            3.2479     1.9267    -0.0183 H            1    LIG   0.0000
@<TRIPOS>BOND
   1        1        2 1
   2        2        3 ar
   3        3        4 ar
   4        4        5 ar
   5        5        6 1
   6        6        7 1
   7        7        8 2
   8        8        9 1
   9        9       10 1
  10        9       11 1
  11        9       12 1
  12        8       13 1
  13       13       14 2
  14       14        6 1
  15       14       15 1
  16        5       16 ar
  17       16       17 1
  18       16       18 ar
  19       18        2 ar
  20        1       19 1
  21        1       20 1
  22        1       21 1
  23        3       22 1
  24        4       23 1
  25       13       24 1
  26       17       25 1
  27       17       26 1
  28       17       27 1
  29       18       28 1

@<TRIPOS>MOLECULE

  28   29
SMALL
USER_CHARGES
@<TRIPOS>ATOM
   1 C1           3.7226    -0.7135    -0.0371 C.3          1    LIG   0.0000
   2 C2           2.3942     0.0256    -0.0208 C.ar         1    LIG   0.0000
   3 C3           1.2035    -0.6939    -0.0136 C.ar         1    LIG   0.0000
   4 C4          -0.0097    -0.0127     0.0013 C.ar         1    LIG   0.0000
   5 C5          -0.0266     1.3786     0.0091 C.ar         1    LIG   0.0000
   6 N6          -1.2472     2.0637     0.0238 N.pl3        1    LIG   0.0000
   7 N7          -1.9179     2.4398    -1.0393 N.2          1    LIG   0.0000
   8 C8          -3.0149     3.0561    -0.6691 C.2          1    LIG   0.0000
   9 C9          -4.0621     3.6429    -1.6024 C.3          1    LIG   0.0000
  10 F10         -5.0505     4.1690    -0.8847 F            1    LIG   0.0000
  11 F11         -3.5063     4.5899    -2.3528 F            1    LIG   0.0000
  12 F12         -4.5454     2.6830    -2.3859 F            1    LIG   0.0000
  13 C13         -3.0631     3.0800     0.7404 C.2          1    LIG   0.0000
  14 C14         -1.9278     2.4448     1.1396 C.2          1    LIG   0.0000
  15 O15         -1.5455     2.2296     2.4168 O.3          1    LIG  -1.0000
  16 C16          1.1703     2.0892     0.0015 C.ar         1    LIG   0.0000
  17 C17          1.1769     3.6094     0.0097 C.3          1    LIG   0.0000
  18 C18          2.3878     1.4166    -0.0132 C.ar         1    LIG   0.0000
  19 H            3.5554    -1.6994    -0.0409 H            1    LIG   0.0000
  20 H            4.2355    -0.4592    -0.8571 H            1    LIG   0.0000
  21 H            4.2506    -0.4681     0.7758 H            1    LIG   0.0000
  22 H            1.2195    -1.6937    -0.0191 H            1    LIG   0.0000
  23 H           -0.8696    -0.5231     0.0063 H            1    LIG   0.0000
  24 H           -3.7754     3.4767     1.3193 H            1    LIG   0.0000
  25 H            2.1211     3.9386     0.0025 H            1    LIG   0.0000
  26 H            0.6992     3.9492    -0.8004 H            1    LIG   0.0000
  27 H            0.7148     3.9403     0.8325 H            1    LIG   0.0000
  28 H            3.2479     1.9267    -0.0183 H            1    LIG   0.0000
@<TRIPOS>BOND
   1        1        2 1
   2        2        3 ar
   3        3        4 ar
   4        4        5 ar
   5        5        6 1
   6        6        7 1
   7        7        8 2
   8        8        9 1
   9        9       10 1
  10        9       11 1
  11        9       12 1
  12        8       13 1
  13       13       14 2
  14       14        6 1
  15       14       15 1
  16        5       16 ar
  17       16       17 1
  18       16       18 ar
  19       18        2 ar
  20        1       19 1
  21        1       20 1
  22        1       21 1
  23        3       22 1
  24        4       23 1
  25       13       24 1
  26       17       25 1
  27       17       26 1
  28       17       27 1
  29       18       28 1

@<TRIPOS>MOLECULE

  28   29
SMALL
USER_CHARGES
@<TRIPOS>ATOM
   1 C1           3.7226    -0.7135    -0.0371 C.3          1    LIG   0.0000
   2 C2           2.3942     0.0256    -0.0208 C.ar         1    LIG   0.0000
   3 C3           1.2035    -0.6939    -0.0136 C.ar         1    LIG   0.0000
   4 C4          -0.0097    -0.0127     0.0013 C.ar         1    LIG   0.0000
   5 C5          -0.0266     1.3786     0.0091 C.ar         1    LIG   0.0000
   6 N6          -1.2472     2.0637     0.0238 N.pl3        1    LIG   0.0000
   7 N7          -1.7194     2.7491     1.0381 N.2          1    LIG   0.0000
   8 C8          -2.8829     3.2616     0.7160 C.2          1    LIG   0.0000
   9 C9          -3.7542     4.1225     1.6169 C.3          1    LIG   0.0000
  10 F10         -3.1915     4.2178     2.8182 F            1    LIG   0.0000
  11 F11         -3.8765     5.3362     1.0870 F            1    LIG   0.0000
  12 F12         -4.9568     3.5664     1.7334 F            1    LIG   0.0000
  13 C13         -3.1893     2.8840    -0.6080 C.2          1    LIG   0.0000
  14 C14         -2.1321     2.1267    -1.0089 C.2          1    LIG   0.0000
  15 O15         -1.9866     1.5429    -2.2179 O.3          1    LIG  -1.0000
  16 C16          1.1703     2.0892     0.0015 C.ar         1    LIG   0.0000
  17 C17          1.1769     3.6094     0.0097 C.3          1    LIG   0.0000
  18 C18          2.3878     1.4166    -0.0132 C.ar         1    LIG   0.0000
  19 H            3.5554    -1.6994    -0.0409 H            1    LIG   0.0000
  20 H            4.2355    -0.4592    -0.8571 H            1    LIG   0.0000
  21 H            4.2506    -0.4681     0.7758 H            1    LIG   0.0000
  22 H            1.2195    -1.6937    -0.0191 H            1    LIG   0.0000
  23 H           -0.8696    -0.5231     0.0063 H            1    LIG   0.0000
  24 H           -4.0047     3.1208    -1.1363 H            1    LIG   0.0000
  25 H            2.1211     3.9386     0.0025 H            1    LIG   0.0000
  26 H            0.6992     3.9492    -0.8004 H            1    LIG   0.0000
  27 H            0.7148     3.9403     0.8325 H            1    LIG   0.0000
  28 H            3.2479     1.9267    -0.0183 H            1    LIG   0.0000
@<TRIPOS>BOND
   1        1        2 1
   2        2        3 ar
   3        3        4 ar
   4        4        5 ar
   5        5        6 1
   6        6        7 1
   7        7        8 2
   8        8        9 1
   9        9       10 1
  10        9       11 1
  11        9       12 1
  12        8       13 1
  13       13       14 2
  14       14        6 1
  15       14       15 1
  16        5       16 ar
  17       16       17 1
  18       16       18 ar
  19       18        2 ar
  20        1       19 1
  21        1       20 1
  22        1       21 1
  23        3       22 1
  24        4       23 1
  25       13       24 1
  26       17       25 1
  27       17       26 1
  28       17       27 1
  29       18       28 1

@<TRIPOS>MOLECULE

  28   29
SMALL
USER_CHARGES
@<TRIPOS>ATOM
   1 C1           3.7226    -0.7135    -0.0371 C.3          1    LIG   0.0000
   2 C2           2.3942     0.0256    -0.0208 C.ar         1    LIG   0.0000
   3 C3           1.2035    -0.6939    -0.0136 C.ar         1    LIG   0.0000
   4 C4          -0.0097    -0.0127     0.0013 C.ar         1    LIG   0.0000
   5 C5          -0.0266     1.3786     0.0091 C.ar         1    LIG   0.0000
   6 N6          -1.2472     2.0637     0.0238 N.pl3        1    LIG   0.0000
   7 N7          -1.5634     3.0309     0.8520 N.2          1    LIG   0.0000
   8 C8          -2.7789     3.4495     0.5920 C.2          1    LIG   0.0000
   9 C9          -3.5125     4.5592     1.3284 C.3          1    LIG   0.0000
  10 F10         -2.9602     4.7378     2.5251 F            1    LIG   0.0000
  11 F11         -3.4282     5.6870     0.6285 F            1    LIG   0.0000
  12 F12         -4.7910     4.2235     1.4760 F            1    LIG   0.0000
  13 C13         -3.2907     2.7008    -0.4881 C.2          1    LIG   0.0000
  14 C14         -2.2935     1.8351    -0.8168 C.2          1    LIG   0.0000
  15 O15         -2.3346     0.9140    -1.8034 O.3          1    LIG  -1.0000
  16 C16          1.1703     2.0892     0.0015 C.ar         1    LIG   0.0000
  17 C17          1.1769     3.6094     0.0097 C.3          1    LIG   0.0000
  18 C18          2.3878     1.4166    -0.0132 C.ar         1    LIG   0.0000
  19 H            3.5554    -1.6994    -0.0409 H            1    LIG   0.0000
  20 H            4.2355    -0.4592    -0.8571 H            1    LIG   0.0000
  21 H            4.2506    -0.4681     0.7758 H            1    LIG   0.0000
  22 H            1.2195    -1.6937    -0.0191 H            1    LIG   0.0000
  23 H           -0.8696    -0.5231     0.0063 H            1    LIG   0.0000
  24 H           -4.1894     2.7871    -0.9182 H            1    LIG   0.0000
  25 H            2.1211     3.9386     0.0025 H            1    LIG   0.0000
  26 H            0.6992     3.9492    -0.8004 H            1    LIG   0.0000
  27 H            0.7148     3.9403     0.8325 H            1    LIG   0.0000
  28 H            3.2479     1.9267    -0.0183 H            1    LIG   0.0000
@<TRIPOS>BOND
   1        1        2 1
   2        2        3 ar
   3        3        4 ar
   4        4        5 ar
   5        5        6 1
   6        6        7 1
   7        7        8 2
   8        8        9 1
   9        9       10 1
  10        9       11 1
  11        9       12 1
  12        8       13 1
  13       13       14 2
  14       14        6 1
  15       14       15 1
  16        5       16 ar
  17       16       17 1
  18       16       18 ar
  19       18        2 ar
  20        1       19 1
  21        1       20 1
  22        1       21 1
  23        3       22 1
  24        4       23 1
  25       13       24 1
  26       17       25 1
  27       17       26 1
  28       17       27 1
  29       18       28 1

@<TRIPOS>MOLECULE

  28   29
SMALL
USER_CHARGES
@<TRIPOS>ATOM
   1 C1           3.7226    -0.7135    -0.0371 C.3          1    LIG   0.0000
   2 C2           2.3942     0.0256    -0.0208 C.ar         1    LIG   0.0000
   3 C3           1.2035    -0.6939    -0.0136 C.ar         1    LIG   0.0000
   4 C4          -0.0097    -0.0127     0.0013 C.ar         1    LIG   0.0000
   5 C5          -0.0266     1.3786     0.0091 C.ar         1    LIG   0.0000
   6 N6          -1.2472     2.0637     0.0238 N.pl3        1    LIG   0.0000
   7 N7          -1.7380     2.7590    -0.9748 N.2          1    LIG   0.0000
   8 C8          -2.8950     3.2688    -0.6259 C.2          1    LIG   0.0000
   9 C9          -3.7833     4.1375    -1.5025 C.3          1    LIG   0.0000
  10 F10         -4.5716     4.8833    -0.7335 F            1    LIG   0.0000
  11 F11         -3.0249     4.9270    -2.2576 F            1    LIG   0.0000
  12 F12         -4.5304     3.3619    -2.2830 F            1    LIG   0.0000
  13 C13         -3.1797     2.8731     0.6976 C.2          1    LIG   0.0000
  14 C14         -2.1138     2.1149     1.0726 C.2          1    LIG   0.0000
  15 O15         -1.9468     1.5178     2.2723 O.3          1    LIG  -1.0000
  16 C16          1.1703     2.0892     0.0015 C.ar         1    LIG   0.0000
  17 C17          1.1769     3.6094     0.0097 C.3          1    LIG   0.0000
  18 C18          2.3878     1.4166    -0.0132 C.ar         1    LIG   0.0000
  19 H            3.5554    -1.6994    -0.0409 H            1    LIG   0.0000
  20 H            4.2355    -0.4592    -0.8571 H            1    LIG   0.0000
  21 H            4.2506    -0.4681     0.7758 H            1    LIG   0.0000
  22 H            1.2195    -1.6937    -0.0191 H            1    LIG   0.0000
  23 H           -0.8696    -0.5231     0.0063 H            1    LIG   0.0000
  24 H           -3.9878     3.1001     1.2412 H            1    LIG   0.0000
  25 H            2.1211     3.9386     0.0025 H            1    LIG   0.0000
  26 H            0.6992     3.9492    -0.8004 H            1    LIG   0.0000
  27 H            0.7148     3.9403     0.8325 H            1    LIG   0.0000
  28 H            3.2479     1.9267    -0.0183 H            1    LIG   0.0000
@<TRIPOS>BOND
   1        1        2 1
   2        2        3 ar
   3        3        4 ar
   4        4        5 ar
   5        5        6 1
   6        6        7 1
   7        7        8 2
   8        8        9 1
   9        9       10 1
  10        9       11 1
  11        9       12 1
  12        8       13 1
  13       13       14 2
  14       14        6 1
  15       14       15 1
  16        5       16 ar
  17       16       17 1
  18       16       18 ar
  19       18        2 ar
  20        1       19 1
  21        1       20 1
  22        1       21 1
  23        3       22 1
  24        4       23 1
  25       13       24 1
  26       17       25 1
  27       17       26 1
  28       17       27 1
  29       18       28 1

@<TRIPOS>MOLECULE

  28   29
SMALL
USER_CHARGES
@<TRIPOS>ATOM
   1 C1           3.7226    -0.7135    -0.0371 C.3          1    LIG   0.0000
   2 C2           2.3942     0.0256    -0.0208 C.ar         1    LIG   0.0000
   3 C3           1.2035    -0.6939    -0.0136 C.ar         1    LIG   0.0000
   4 C4          -0.0097    -0.0127     0.0013 C.ar         1    LIG   0.0000
   5 C5          -0.0266     1.3786     0.0091 C.ar         1    LIG   0.0000
   6 N6          -1.2472     2.0637     0.0238 N.pl3        1    LIG   0.0000
   7 N7          -1.5786     3.0390    -0.7889 N.2          1    LIG   0.0000
   8 C8          -2.7887     3.4554    -0.5019 C.2          1    LIG   0.0000
   9 C9          -3.5362     4.5714    -1.2144 C.3          1    LIG   0.0000
  10 F10         -4.0310     5.4179    -0.3157 F            1    LIG   0.0000
  11 F11         -2.7010     5.2197    -2.0213 F            1    LIG   0.0000
  12 F12         -4.5306     4.0529    -1.9295 F            1    LIG   0.0000
  13 C13         -3.2829     2.6919     0.5762 C.2          1    LIG   0.0000
  14 C14         -2.2785     1.8255     0.8801 C.2          1    LIG   0.0000
  15 O15         -2.3022     0.8935     1.8570 O.3          1    LIG  -1.0000
  16 C16          1.1703     2.0892     0.0015 C.ar         1    LIG   0.0000
  17 C17          1.1769     3.6094     0.0097 C.3          1    LIG   0.0000
  18 C18          2.3878     1.4166    -0.0132 C.ar         1    LIG   0.0000
  19 H            3.5554    -1.6994    -0.0409 H            1    LIG   0.0000
  20 H            4.2355    -0.4592    -0.8571 H            1    LIG   0.0000
  21 H            4.2506    -0.4681     0.7758 H            1    LIG   0.0000
  22 H            1.2195    -1.6937    -0.0191 H            1    LIG   0.0000
  23 H           -0.8696    -0.5231     0.0063 H            1    LIG   0.0000
  24 H           -4.1756     2.7702     1.0200 H            1    LIG   0.0000
  25 H            2.1211     3.9386     0.0025 H            1    LIG   0.0000
  26 H            0.6992     3.9492    -0.8004 H            1    LIG   0.0000
  27 H            0.7148     3.9403     0.8325 H            1    LIG   0.0000
  28 H            3.2479     1.9267    -0.0183 H            1    LIG   0.0000
@<TRIPOS>BOND
   1        1        2 1
   2        2        3 ar
   3        3        4 ar
   4        4        5 ar
   5        5        6 1
   6        6        7 1
   7        7        8 2
   8        8        9 1
   9        9       10 1
  10        9       11 1
  11        9       12 1
  12        8       13 1
  13       13       14 2
  14       14        6 1
  15       14       15 1
  16        5       16 ar
  17       16       17 1
  18       16       18 ar
  19       18        2 ar
  20        1       19 1
  21        1       20 1
  22        1       21 1
  23        3       22 1
  24        4       23 1
  25       13       24 1
  26       17       25 1
  27       17       26 1
  28       17       27 1
  29       18       28 1

