@<TRIPOS>MOLECULE
*****
 28 29 0 0 0
SMALL
USER_CHARGES

@<TRIPOS>ATOM
      1 C1          3.7226   -0.7135   -0.0371 C.3     1  LIG1        0.0000
      2 C2          2.3942    0.0256   -0.0208 C.3     1  LIG1        0.0000
      3 C3          1.2035   -0.6939   -0.0136 C.3     1  LIG1        0.0000
      4 C4         -0.0097   -0.0127    0.0013 C.3     1  LIG1        0.0000
      5 C5         -0.0266    1.3786    0.0091 C.3     1  LIG1        0.0000
      6 N6         -1.2472    2.0637    0.0238 N.pl3   1  LIG1        0.0000
      7 N7         -1.7194    2.7491    1.0381 N.2     1  LIG1        0.0000
      8 C8         -2.8829    3.2616    0.7160 C.2     1  LIG1        0.0000
      9 C9         -3.7542    4.1225    1.6169 C.3     1  LIG1        0.0000
     10 F10        -3.1915    4.2178    2.8182 F       1  LIG1        0.0000
     11 F11        -3.8765    5.3362    1.0870 F       1  LIG1        0.0000
     12 F12        -4.9568    3.5664    1.7334 F       1  LIG1        0.0000
     13 C13        -3.1893    2.8840   -0.6080 C.2     1  LIG1        0.0000
     14 C14        -2.1321    2.1267   -1.0089 C.2     1  LIG1        0.0000
     15 O15        -1.9866    1.5429   -2.2179 O.2     1  LIG1       -1.0000
     16 C16         1.1703    2.0892    0.0015 C.3     1  LIG1        0.0000
     17 C17         1.1769    3.6094    0.0097 C.3     1  LIG1        0.0000
     18 C18         2.3878    1.4166   -0.0132 C.3     1  LIG1        0.0000
     19 H           3.5554   -1.6994   -0.0409 H       1  LIG1        0.0000
     20 H           4.2355   -0.4592   -0.8571 H       1  LIG1        0.0000
     21 H           4.2506   -0.4681    0.7758 H       1  LIG1        0.0000
     22 H           1.2195   -1.6937   -0.0191 H       1  LIG1        0.0000
     23 H          -0.8696   -0.5231    0.0063 H       1  LIG1        0.0000
     24 H          -4.0047    3.1208   -1.1363 H       1  LIG1        0.0000
     25 H           2.1211    3.9386    0.0025 H       1  LIG1        0.0000
     26 H           0.6992    3.9492   -0.8004 H       1  LIG1        0.0000
     27 H           0.7148    3.9403    0.8325 H       1  LIG1        0.0000
     28 H           3.2479    1.9267   -0.0183 H       1  LIG1        0.0000
@<TRIPOS>UNITY_ATOM_ATTR
15 1
charge -1
@<TRIPOS>BOND
     1     1     2    1
     2     2     3   ar
     3     3     4   ar
     4     4     5   ar
     5     5     6    1
     6     6     7    1
     7     7     8    2
     8     8     9    1
     9     9    10    1
    10     9    11    1
    11     9    12    1
    12     8    13    1
    13    13    14    2
    14    14     6    1
    15    14    15    1
    16     5    16   ar
    17    16    17    1
    18    16    18   ar
    19    18     2   ar
    20     1    19    1
    21     1    20    1
    22     1    21    1
    23     3    22    1
    24     4    23    1
    25    13    24    1
    26    17    25    1
    27    17    26    1
    28    17    27    1
    29    18    28    1
