@<TRIPOS>MOLECULE

  29   32
SMALL
USER_CHARGES
@<TRIPOS>ATOM
   1 C1           4.9655     1.1542    -0.6700 C.ar         1    LIG   0.0000
   2 C2           5.7071     0.8889     0.4695 C.ar         1    LIG   0.0000
   3 C3           4.9914     0.4058     1.5524 C.ar         1    LIG   0.0000
   4 S4           5.6157    -0.0094     3.0783 S.3          1    LIG   0.0000
   5 C5           4.1604    -0.5019     3.8151 C.2          1    LIG   0.0000
   6 C6           3.1989    -0.3334     2.8628 C.2          1    LIG   0.0000
   7 C7           3.6360     0.1685     1.6032 C.ar         1    LIG   0.0000
   8 C8           2.9862     0.4667     0.4077 C.ar         1    LIG   0.0000
   9 N9           1.6024     0.2745     0.3096 N.pl3        1    LIG   0.0000
  10 C10          0.7433     1.4263     0.0008 C.3          1    LIG   0.0000
  11 C11         -0.7109     1.2054     0.3905 C.3          1    LIG   0.0000
  12 N12         -1.1031    -0.0677    -0.2238 N.pl3        1    LIG   0.0000
  13 N13         -2.1934    -0.4161    -0.8677 N.2          1    LIG   0.0000
  14 N14         -2.1142    -1.6049    -1.2923 N.2          1    LIG   0.0000
  15 C15         -0.9245    -2.1281    -0.8837 C.2          1    LIG   0.0000
  16 C16         -0.2861    -1.1420    -0.1939 C.2          1    LIG   0.0000
  17 C17          1.0561    -1.0754     0.5161 C.3          1    LIG   0.0000
  18 N18          3.6399     0.9378    -0.6676 N.ar         1    LIG   0.0000
  19 H            5.4152     1.5055    -1.4912 H            1    LIG   0.0000
  20 H            6.6954     1.0366     0.5077 H            1    LIG   0.0000
  21 H            4.0375    -0.8420     4.7474 H            1    LIG   0.0000
  22 H            2.2388    -0.5505     3.0391 H            1    LIG   0.0000
  23 H            0.7865     1.6013    -0.9829 H            1    LIG   0.0000
  24 H            1.0885     2.2232     0.4965 H            1    LIG   0.0000
  25 H           -0.8004     1.1538     1.3852 H            1    LIG   0.0000
  26 H           -1.2811     1.9497     0.0427 H            1    LIG   0.0000
  27 H           -0.5866    -3.0533    -1.0561 H            1    LIG   0.0000
  28 H            0.9337    -1.2478     1.4935 H            1    LIG   0.0000
  29 H            1.6788    -1.7575     0.1327 H            1    LIG   0.0000
@<TRIPOS>BOND
   1        1        2 ar
   2        2        3 ar
   3        3        4 1
   4        4        5 1
   5        5        6 2
   6        6        7 1
   7        7        3 ar
   8        7        8 ar
   9        8        9 1
  10        9       10 1
  11       10       11 1
  12       11       12 1
  13       12       13 1
  14       13       14 2
  15       14       15 1
  16       15       16 2
  17       16       12 1
  18       16       17 1
  19       17        9 1
  20        8       18 ar
  21       18        1 ar
  22        1       19 1
  23        2       20 1
  24        5       21 1
  25        6       22 1
  26       10       23 1
  27       10       24 1
  28       11       25 1
  29       11       26 1
  30       15       27 1
  31       17       28 1
  32       17       29 1

@<TRIPOS>MOLECULE

  29   32
SMALL
USER_CHARGES
@<TRIPOS>ATOM
   1 C1           5.1211    -0.0964    -0.4151 C.ar         1    LIG   0.0000
   2 C2           5.7238     0.7543     0.4970 C.ar         1    LIG   0.0000
   3 C3           4.8634     1.4350     1.3423 C.ar         1    LIG   0.0000
   4 S4           5.2984     2.5409     2.5581 S.3          1    LIG   0.0000
   5 C5           3.7350     2.9137     3.1240 C.2          1    LIG   0.0000
   6 C6           2.8868     2.1732     2.3547 C.2          1    LIG   0.0000
   7 C7           3.4893     1.3482     1.3618 C.ar         1    LIG   0.0000
   8 C8           2.9862     0.4667     0.4077 C.ar         1    LIG   0.0000
   9 N9           1.6024     0.2745     0.3096 N.pl3        1    LIG   0.0000
  10 C10          0.7433     1.4263     0.0008 C.3          1    LIG   0.0000
  11 C11         -0.7109     1.2054     0.3905 C.3          1    LIG   0.0000
  12 N12         -1.1031    -0.0677    -0.2238 N.pl3        1    LIG   0.0000
  13 N13         -2.1934    -0.4161    -0.8677 N.2          1    LIG   0.0000
  14 N14         -2.1142    -1.6049    -1.2923 N.2          1    LIG   0.0000
  15 C15         -0.9245    -2.1281    -0.8837 C.2          1    LIG   0.0000
  16 C16         -0.2861    -1.1420    -0.1939 C.2          1    LIG   0.0000
  17 C17          1.0561    -1.0754     0.5161 C.3          1    LIG   0.0000
  18 N18          3.7832    -0.2140    -0.4331 N.ar         1    LIG   0.0000
  19 H            5.6798    -0.6208    -1.0576 H            1    LIG   0.0000
  20 H            6.7162     0.8695     0.5422 H            1    LIG   0.0000
  21 H            3.4914     3.5418     3.8630 H            1    LIG   0.0000
  22 H            1.8954     2.2075     2.4807 H            1    LIG   0.0000
  23 H            0.7865     1.6013    -0.9829 H            1    LIG   0.0000
  24 H            1.0885     2.2232     0.4965 H            1    LIG   0.0000
  25 H           -0.8004     1.1538     1.3852 H            1    LIG   0.0000
  26 H           -1.2811     1.9497     0.0427 H            1    LIG   0.0000
  27 H           -0.5866    -3.0533    -1.0561 H            1    LIG   0.0000
  28 H            0.9337    -1.2478     1.4935 H            1    LIG   0.0000
  29 H            1.6788    -1.7575     0.1327 H            1    LIG   0.0000
@<TRIPOS>BOND
   1        1        2 ar
   2        2        3 ar
   3        3        4 1
   4        4        5 1
   5        5        6 2
   6        6        7 1
   7        7        3 ar
   8        7        8 ar
   9        8        9 1
  10        9       10 1
  11       10       11 1
  12       11       12 1
  13       12       13 1
  14       13       14 2
  15       14       15 1
  16       15       16 2
  17       16       12 1
  18       16       17 1
  19       17        9 1
  20        8       18 ar
  21       18        1 ar
  22        1       19 1
  23        2       20 1
  24        5       21 1
  25        6       22 1
  26       10       23 1
  27       10       24 1
  28       11       25 1
  29       11       26 1
  30       15       27 1
  31       17       28 1
  32       17       29 1

@<TRIPOS>MOLECULE

  29   32
SMALL
USER_CHARGES
@<TRIPOS>ATOM
   1 C1           5.0106    -0.2249     1.3952 C.ar         1    LIG   0.0000
   2 C2           5.7119     0.7406     0.6918 C.ar         1    LIG   0.0000
   3 C3           4.9544     1.5404    -0.1477 C.ar         1    LIG   0.0000
   4 S4           5.5238     2.8027    -1.1340 S.3          1    LIG   0.0000
   5 C5           4.0357     3.2719    -1.8187 C.2          1    LIG   0.0000
   6 C6           3.1077     2.4348    -1.2730 C.2          1    LIG   0.0000
   7 C7           3.5937     1.4682    -0.3463 C.ar         1    LIG   0.0000
   8 C8           2.9862     0.4667     0.4077 C.ar         1    LIG   0.0000
   9 N9           1.6024     0.2745     0.3096 N.pl3        1    LIG   0.0000
  10 C10          0.7433     1.4263     0.0008 C.3          1    LIG   0.0000
  11 C11         -0.7109     1.2054     0.3905 C.3          1    LIG   0.0000
  12 N12         -1.1031    -0.0677    -0.2238 N.pl3        1    LIG   0.0000
  13 N13         -2.1934    -0.4161    -0.8677 N.2          1    LIG   0.0000
  14 N14         -2.1142    -1.6049    -1.2923 N.2          1    LIG   0.0000
  15 C15         -0.9245    -2.1281    -0.8837 C.2          1    LIG   0.0000
  16 C16         -0.2861    -1.1420    -0.1939 C.2          1    LIG   0.0000
  17 C17          1.0561    -1.0754     0.5161 C.3          1    LIG   0.0000
  18 N18          3.6815    -0.3328     1.2341 N.ar         1    LIG   0.0000
  19 H            5.4919    -0.8392     2.0206 H            1    LIG   0.0000
  20 H            6.7013     0.8529     0.7842 H            1    LIG   0.0000
  21 H            3.8768     4.0050    -2.4800 H            1    LIG   0.0000
  22 H            2.1383     2.4962    -1.5106 H            1    LIG   0.0000
  23 H            0.7865     1.6013    -0.9829 H            1    LIG   0.0000
  24 H            1.0885     2.2232     0.4965 H            1    LIG   0.0000
  25 H           -0.8004     1.1538     1.3852 H            1    LIG   0.0000
  26 H           -1.2811     1.9497     0.0427 H            1    LIG   0.0000
  27 H           -0.5866    -3.0533    -1.0561 H            1    LIG   0.0000
  28 H            0.9337    -1.2478     1.4935 H            1    LIG   0.0000
  29 H            1.6788    -1.7575     0.1327 H            1    LIG   0.0000
@<TRIPOS>BOND
   1        1        2 ar
   2        2        3 ar
   3        3        4 1
   4        4        5 1
   5        5        6 2
   6        6        7 1
   7        7        3 ar
   8        7        8 ar
   9        8        9 1
  10        9       10 1
  11       10       11 1
  12       11       12 1
  13       12       13 1
  14       13       14 2
  15       14       15 1
  16       15       16 2
  17       16       12 1
  18       16       17 1
  19       17        9 1
  20        8       18 ar
  21       18        1 ar
  22        1       19 1
  23        2       20 1
  24        5       21 1
  25        6       22 1
  26       10       23 1
  27       10       24 1
  28       11       25 1
  29       11       26 1
  30       15       27 1
  31       17       28 1
  32       17       29 1

@<TRIPOS>MOLECULE

  29   32
SMALL
USER_CHARGES
@<TRIPOS>ATOM
   1 C1           4.7532     1.5716     1.5071 C.ar         1    LIG   0.0000
   2 C2           5.6842     0.9339     0.7037 C.ar         1    LIG   0.0000
   3 C3           5.1662     0.0618    -0.2393 C.ar         1    LIG   0.0000
   4 S4           6.0488    -0.8611    -1.3617 S.3          1    LIG   0.0000
   5 C5           4.7391    -1.6330    -2.1313 C.2          1    LIG   0.0000
   6 C6           3.6238    -1.1651    -1.5012 C.2          1    LIG   0.0000
   7 C7           3.8365    -0.2269    -0.4505 C.ar         1    LIG   0.0000
   8 C8           2.9862     0.4667     0.4077 C.ar         1    LIG   0.0000
   9 N9           1.6024     0.2745     0.3096 N.pl3        1    LIG   0.0000
  10 C10          0.7433     1.4263     0.0008 C.3          1    LIG   0.0000
  11 C11         -0.7109     1.2054     0.3905 C.3          1    LIG   0.0000
  12 N12         -1.1031    -0.0677    -0.2238 N.pl3        1    LIG   0.0000
  13 N13         -2.1934    -0.4161    -0.8677 N.2          1    LIG   0.0000
  14 N14         -2.1142    -1.6049    -1.2923 N.2          1    LIG   0.0000
  15 C15         -0.9245    -2.1281    -0.8837 C.2          1    LIG   0.0000
  16 C16         -0.2861    -1.1420    -0.1939 C.2          1    LIG   0.0000
  17 C17          1.0561    -1.0754     0.5161 C.3          1    LIG   0.0000
  18 N18          3.4444     1.3216     1.3375 N.ar         1    LIG   0.0000
  19 H            5.0542     2.2154     2.2105 H            1    LIG   0.0000
  20 H            6.6669     1.0930     0.7986 H            1    LIG   0.0000
  21 H            4.7796    -2.2893    -2.8847 H            1    LIG   0.0000
  22 H            2.7062    -1.4645    -1.7625 H            1    LIG   0.0000
  23 H            0.7865     1.6013    -0.9829 H            1    LIG   0.0000
  24 H            1.0885     2.2232     0.4965 H            1    LIG   0.0000
  25 H           -0.8004     1.1538     1.3852 H            1    LIG   0.0000
  26 H           -1.2811     1.9497     0.0427 H            1    LIG   0.0000
  27 H           -0.5866    -3.0533    -1.0561 H            1    LIG   0.0000
  28 H            0.9337    -1.2478     1.4935 H            1    LIG   0.0000
  29 H            1.6788    -1.7575     0.1327 H            1    LIG   0.0000
@<TRIPOS>BOND
   1        1        2 ar
   2        2        3 ar
   3        3        4 1
   4        4        5 1
   5        5        6 2
   6        6        7 1
   7        7        3 ar
   8        7        8 ar
   9        8        9 1
  10        9       10 1
  11       10       11 1
  12       11       12 1
  13       12       13 1
  14       13       14 2
  15       14       15 1
  16       15       16 2
  17       16       12 1
  18       16       17 1
  19       17        9 1
  20        8       18 ar
  21       18        1 ar
  22        1       19 1
  23        2       20 1
  24        5       21 1
  25        6       22 1
  26       10       23 1
  27       10       24 1
  28       11       25 1
  29       11       26 1
  30       15       27 1
  31       17       28 1
  32       17       29 1

@<TRIPOS>MOLECULE

  29   32
SMALL
USER_CHARGES
@<TRIPOS>ATOM
   1 C1           4.2183     1.0584     2.4703 C.ar         1    LIG   0.0000
   2 C2           4.1233     0.3581     3.6617 C.ar         1    LIG   0.0000
   3 C3           2.9928    -0.4289     3.8068 C.ar         1    LIG   0.0000
   4 S4           2.5955    -1.3981     5.1459 S.3          1    LIG   0.0000
   5 C5           1.1183    -2.0223     4.5697 C.2          1    LIG   0.0000
   6 C6           0.9472    -1.4641     3.3373 C.2          1    LIG   0.0000
   7 C7           1.9717    -0.5786     2.8951 C.ar         1    LIG   0.0000
   8 C8           2.1656     0.1662     1.7339 C.ar         1    LIG   0.0000
   9 N9           1.2073     0.1133     0.7140 N.pl3        1    LIG   0.0000
  10 C10          0.5253     1.3498     0.2880 C.3          1    LIG   0.0000
  11 C11         -0.8205     1.1005    -0.3852 C.3          1    LIG   0.0000
  12 N12         -1.3803    -0.2477    -0.1623 N.pl3        1    LIG   0.0000
  13 N13         -2.6143    -0.7011    -0.0955 N.2          1    LIG   0.0000
  14 N14         -2.6646    -1.9518     0.0662 N.2          1    LIG   0.0000
  15 C15         -1.3813    -2.4068     0.1408 C.2          1    LIG   0.0000
  16 C16         -0.5721    -1.3177     0.0302 C.2          1    LIG   0.0000
  17 C17          0.9327    -1.1950     0.1088 C.3          1    LIG   0.0000
  18 N18          3.2463     0.9434     1.5505 N.ar         1    LIG   0.0000
  19 H            5.0074     1.6472     2.2958 H            1    LIG   0.0000
  20 H            4.8255     0.4169     4.3712 H            1    LIG   0.0000
  21 H            0.5071    -2.6617     5.0360 H            1    LIG   0.0000
  22 H            0.1457    -1.6656     2.7742 H            1    LIG   0.0000
  23 H            1.1178     1.8319    -0.3575 H            1    LIG   0.0000
  24 H            0.3750     1.9222     1.0940 H            1    LIG   0.0000
  25 H           -1.4737     1.7713    -0.0340 H            1    LIG   0.0000
  26 H           -0.7054     1.2313    -1.3699 H            1    LIG   0.0000
  27 H           -1.0908    -3.3568     0.2547 H            1    LIG   0.0000
  28 H            1.3106    -1.9258     0.6773 H            1    LIG   0.0000
  29 H            1.3326    -1.2441    -0.8064 H            1    LIG   0.0000
@<TRIPOS>BOND
   1        1        2 ar
   2        2        3 ar
   3        3        4 1
   4        4        5 1
   5        5        6 2
   6        6        7 1
   7        7        3 ar
   8        7        8 ar
   9        8        9 1
  10        9       10 1
  11       10       11 1
  12       11       12 1
  13       12       13 1
  14       13       14 2
  15       14       15 1
  16       15       16 2
  17       16       12 1
  18       16       17 1
  19       17        9 1
  20        8       18 ar
  21       18        1 ar
  22        1       19 1
  23        2       20 1
  24        5       21 1
  25        6       22 1
  26       10       23 1
  27       10       24 1
  28       11       25 1
  29       11       26 1
  30       15       27 1
  31       17       28 1
  32       17       29 1

@<TRIPOS>MOLECULE

  29   32
SMALL
USER_CHARGES
@<TRIPOS>ATOM
   1 C1           4.4061    -0.2087     2.3597 C.ar         1    LIG   0.0000
   2 C2           4.1434     0.2217     3.6499 C.ar         1    LIG   0.0000
   3 C3           2.8384     0.6141     3.8977 C.ar         1    LIG   0.0000
   4 S4           2.2127     1.1861     5.3714 S.3          1    LIG   0.0000
   5 C5           0.6020     1.4367     4.8753 C.2          1    LIG   0.0000
   6 C6           0.5689     1.0747     3.5609 C.2          1    LIG   0.0000
   7 C7           1.7952     0.6171     2.9989 C.ar         1    LIG   0.0000
   8 C8           2.1656     0.1662     1.7339 C.ar         1    LIG   0.0000
   9 N9           1.2073     0.1133     0.7140 N.pl3        1    LIG   0.0000
  10 C10          0.5253     1.3498     0.2880 C.3          1    LIG   0.0000
  11 C11         -0.8205     1.1005    -0.3852 C.3          1    LIG   0.0000
  12 N12         -1.3803    -0.2477    -0.1623 N.pl3        1    LIG   0.0000
  13 N13         -2.6143    -0.7011    -0.0955 N.2          1    LIG   0.0000
  14 N14         -2.6646    -1.9518     0.0662 N.2          1    LIG   0.0000
  15 C15         -1.3813    -2.4068     0.1408 C.2          1    LIG   0.0000
  16 C16         -0.5721    -1.3177     0.0302 C.2          1    LIG   0.0000
  17 C17          0.9327    -1.1950     0.1088 C.3          1    LIG   0.0000
  18 N18          3.4194    -0.2235     1.4484 N.ar         1    LIG   0.0000
  19 H            5.3266    -0.5072     2.1077 H            1    LIG   0.0000
  20 H            4.8503     0.2475     4.3567 H            1    LIG   0.0000
  21 H           -0.1574     1.7769     5.4300 H            1    LIG   0.0000
  22 H           -0.2710     1.1276     3.0208 H            1    LIG   0.0000
  23 H            1.1178     1.8319    -0.3575 H            1    LIG   0.0000
  24 H            0.3750     1.9222     1.0940 H            1    LIG   0.0000
  25 H           -1.4737     1.7713    -0.0340 H            1    LIG   0.0000
  26 H           -0.7054     1.2313    -1.3699 H            1    LIG   0.0000
  27 H           -1.0908    -3.3568     0.2547 H            1    LIG   0.0000
  28 H            1.3106    -1.9258     0.6773 H            1    LIG   0.0000
  29 H            1.3326    -1.2441    -0.8064 H            1    LIG   0.0000
@<TRIPOS>BOND
   1        1        2 ar
   2        2        3 ar
   3        3        4 1
   4        4        5 1
   5        5        6 2
   6        6        7 1
   7        7        3 ar
   8        7        8 ar
   9        8        9 1
  10        9       10 1
  11       10       11 1
  12       11       12 1
  13       12       13 1
  14       13       14 2
  15       14       15 1
  16       15       16 2
  17       16       12 1
  18       16       17 1
  19       17        9 1
  20        8       18 ar
  21       18        1 ar
  22        1       19 1
  23        2       20 1
  24        5       21 1
  25        6       22 1
  26       10       23 1
  27       10       24 1
  28       11       25 1
  29       11       26 1
  30       15       27 1
  31       17       28 1
  32       17       29 1

@<TRIPOS>MOLECULE

  29   32
SMALL
USER_CHARGES
@<TRIPOS>ATOM
   1 C1           3.2199    -0.9628     3.5132 C.ar         1    LIG   0.0000
   2 C2           4.0157     0.1407     3.7740 C.ar         1    LIG   0.0000
   3 C3           3.8148     1.2343     2.9482 C.ar         1    LIG   0.0000
   4 S4           4.6319     2.7235     3.0188 S.3          1    LIG   0.0000
   5 C5           3.8384     3.5022     1.7275 C.2          1    LIG   0.0000
   6 C6           2.9446     2.5895     1.2504 C.2          1    LIG   0.0000
   7 C7           2.9148     1.3273     1.9102 C.ar         1    LIG   0.0000
   8 C8           2.1656     0.1662     1.7339 C.ar         1    LIG   0.0000
   9 N9           1.2073     0.1133     0.7140 N.pl3        1    LIG   0.0000
  10 C10          0.5253     1.3498     0.2880 C.3          1    LIG   0.0000
  11 C11         -0.8205     1.1005    -0.3852 C.3          1    LIG   0.0000
  12 N12         -1.3803    -0.2477    -0.1623 N.pl3        1    LIG   0.0000
  13 N13         -2.6143    -0.7011    -0.0955 N.2          1    LIG   0.0000
  14 N14         -2.6646    -1.9518     0.0662 N.2          1    LIG   0.0000
  15 C15         -1.3813    -2.4068     0.1408 C.2          1    LIG   0.0000
  16 C16         -0.5721    -1.3177     0.0302 C.2          1    LIG   0.0000
  17 C17          0.9327    -1.1950     0.1088 C.3          1    LIG   0.0000
  18 N18          2.3272    -0.9183     2.5106 N.ar         1    LIG   0.0000
  19 H            3.3097    -1.7891     4.0691 H            1    LIG   0.0000
  20 H            4.6916     0.1472     4.5110 H            1    LIG   0.0000
  21 H            3.9949     4.4309     1.3912 H            1    LIG   0.0000
  22 H            2.3425     2.7951     0.4788 H            1    LIG   0.0000
  23 H            1.1178     1.8319    -0.3575 H            1    LIG   0.0000
  24 H            0.3750     1.9222     1.0940 H            1    LIG   0.0000
  25 H           -1.4737     1.7713    -0.0340 H            1    LIG   0.0000
  26 H           -0.7054     1.2313    -1.3699 H            1    LIG   0.0000
  27 H           -1.0908    -3.3568     0.2547 H            1    LIG   0.0000
  28 H            1.3106    -1.9258     0.6773 H            1    LIG   0.0000
  29 H            1.3326    -1.2441    -0.8064 H            1    LIG   0.0000
@<TRIPOS>BOND
   1        1        2 ar
   2        2        3 ar
   3        3        4 1
   4        4        5 1
   5        5        6 2
   6        6        7 1
   7        7        3 ar
   8        7        8 ar
   9        8        9 1
  10        9       10 1
  11       10       11 1
  12       11       12 1
  13       12       13 1
  14       13       14 2
  15       14       15 1
  16       15       16 2
  17       16       12 1
  18       16       17 1
  19       17        9 1
  20        8       18 ar
  21       18        1 ar
  22        1       19 1
  23        2       20 1
  24        5       21 1
  25        6       22 1
  26       10       23 1
  27       10       24 1
  28       11       25 1
  29       11       26 1
  30       15       27 1
  31       17       28 1
  32       17       29 1

@<TRIPOS>MOLECULE

  29   32
SMALL
USER_CHARGES
@<TRIPOS>ATOM
   1 C1           2.6271     0.6904     3.9843 C.ar         1    LIG   0.0000
   2 C2           3.9520     0.3186     3.8247 C.ar         1    LIG   0.0000
   3 C3           4.3024    -0.1265     2.5608 C.ar         1    LIG   0.0000
   4 S4           5.8405    -0.6481     2.0583 S.3          1    LIG   0.0000
   5 C5           5.4617    -1.0087     0.4366 C.2          1    LIG   0.0000
   6 C6           4.1351    -0.7217     0.3037 C.2          1    LIG   0.0000
   7 C7           3.4732    -0.2329     1.4666 C.ar         1    LIG   0.0000
   8 C8           2.1656     0.1662     1.7339 C.ar         1    LIG   0.0000
   9 N9           1.2073     0.1133     0.7140 N.pl3        1    LIG   0.0000
  10 C10          0.5253     1.3498     0.2880 C.3          1    LIG   0.0000
  11 C11         -0.8205     1.1005    -0.3852 C.3          1    LIG   0.0000
  12 N12         -1.3803    -0.2477    -0.1623 N.pl3        1    LIG   0.0000
  13 N13         -2.6143    -0.7011    -0.0955 N.2          1    LIG   0.0000
  14 N14         -2.6646    -1.9518     0.0662 N.2          1    LIG   0.0000
  15 C15         -1.3813    -2.4068     0.1408 C.2          1    LIG   0.0000
  16 C16         -0.5721    -1.3177     0.0302 C.2          1    LIG   0.0000
  17 C17          0.9327    -1.1950     0.1088 C.3          1    LIG   0.0000
  18 N18          1.7810     0.6039     2.9447 N.ar         1    LIG   0.0000
  19 H            2.3020     1.0218     4.8700 H            1    LIG   0.0000
  20 H            4.6127     0.3684     4.5736 H            1    LIG   0.0000
  21 H            6.0804    -1.3566    -0.2678 H            1    LIG   0.0000
  22 H            3.6530    -0.8477    -0.5633 H            1    LIG   0.0000
  23 H            1.1178     1.8319    -0.3575 H            1    LIG   0.0000
  24 H            0.3750     1.9222     1.0940 H            1    LIG   0.0000
  25 H           -1.4737     1.7713    -0.0340 H            1    LIG   0.0000
  26 H           -0.7054     1.2313    -1.3699 H            1    LIG   0.0000
  27 H           -1.0908    -3.3568     0.2547 H            1    LIG   0.0000
  28 H            1.3106    -1.9258     0.6773 H            1    LIG   0.0000
  29 H            1.3326    -1.2441    -0.8064 H            1    LIG   0.0000
@<TRIPOS>BOND
   1        1        2 ar
   2        2        3 ar
   3        3        4 1
   4        4        5 1
   5        5        6 2
   6        6        7 1
   7        7        3 ar
   8        7        8 ar
   9        8        9 1
  10        9       10 1
  11       10       11 1
  12       11       12 1
  13       12       13 1
  14       13       14 2
  15       14       15 1
  16       15       16 2
  17       16       12 1
  18       16       17 1
  19       17        9 1
  20        8       18 ar
  21       18        1 ar
  22        1       19 1
  23        2       20 1
  24        5       21 1
  25        6       22 1
  26       10       23 1
  27       10       24 1
  28       11       25 1
  29       11       26 1
  30       15       27 1
  31       17       28 1
  32       17       29 1

@<TRIPOS>MOLECULE

  29   32
SMALL
USER_CHARGES
@<TRIPOS>ATOM
   1 C1           2.8947     1.2319     3.7048 C.ar         1    LIG   0.0000
   2 C2           3.9808     0.3769     3.7946 C.ar         1    LIG   0.0000
   3 C3           4.0821    -0.5721     2.7908 C.ar         1    LIG   0.0000
   4 S4           5.2948    -1.7525     2.6282 S.3          1    LIG   0.0000
   5 C5           4.7328    -2.4889     1.1981 C.2          1    LIG   0.0000
   6 C6           3.5999    -1.8079     0.8629 C.2          1    LIG   0.0000
   7 C7           3.2205    -0.7436     1.7305 C.ar         1    LIG   0.0000
   8 C8           2.1656     0.1662     1.7339 C.ar         1    LIG   0.0000
   9 N9           1.2073     0.1133     0.7140 N.pl3        1    LIG   0.0000
  10 C10          0.5253     1.3498     0.2880 C.3          1    LIG   0.0000
  11 C11         -0.8205     1.1005    -0.3852 C.3          1    LIG   0.0000
  12 N12         -1.3803    -0.2477    -0.1623 N.pl3        1    LIG   0.0000
  13 N13         -2.6143    -0.7011    -0.0955 N.2          1    LIG   0.0000
  14 N14         -2.6646    -1.9518     0.0662 N.2          1    LIG   0.0000
  15 C15         -1.3813    -2.4068     0.1408 C.2          1    LIG   0.0000
  16 C16         -0.5721    -1.3177     0.0302 C.2          1    LIG   0.0000
  17 C17          0.9327    -1.1950     0.1088 C.3          1    LIG   0.0000
  18 N18          2.0273     1.1028     2.6875 N.ar         1    LIG   0.0000
  19 H            2.7569     1.9425     4.3948 H            1    LIG   0.0000
  20 H            4.6486     0.4407     4.5362 H            1    LIG   0.0000
  21 H            5.1458    -3.2571     0.7089 H            1    LIG   0.0000
  22 H            3.0643    -2.0429     0.0518 H            1    LIG   0.0000
  23 H            1.1178     1.8319    -0.3575 H            1    LIG   0.0000
  24 H            0.3750     1.9222     1.0940 H            1    LIG   0.0000
  25 H           -1.4737     1.7713    -0.0340 H            1    LIG   0.0000
  26 H           -0.7054     1.2313    -1.3699 H            1    LIG   0.0000
  27 H           -1.0908    -3.3568     0.2547 H            1    LIG   0.0000
  28 H            1.3106    -1.9258     0.6773 H            1    LIG   0.0000
  29 H            1.3326    -1.2441    -0.8064 H            1    LIG   0.0000
@<TRIPOS>BOND
   1        1        2 ar
   2        2        3 ar
   3        3        4 1
   4        4        5 1
   5        5        6 2
   6        6        7 1
   7        7        3 ar
   8        7        8 ar
   9        8        9 1
  10        9       10 1
  11       10       11 1
  12       11       12 1
  13       12       13 1
  14       13       14 2
  15       14       15 1
  16       15       16 2
  17       16       12 1
  18       16       17 1
  19       17        9 1
  20        8       18 ar
  21       18        1 ar
  22        1       19 1
  23        2       20 1
  24        5       21 1
  25        6       22 1
  26       10       23 1
  27       10       24 1
  28       11       25 1
  29       11       26 1
  30       15       27 1
  31       17       28 1
  32       17       29 1

@<TRIPOS>MOLECULE

  29   32
SMALL
USER_CHARGES
@<TRIPOS>ATOM
   1 C1           2.9230     2.3423     2.9803 C.ar         1    LIG   0.0000
   2 C2           2.7336     1.9653     4.2997 C.ar         1    LIG   0.0000
   3 C3           1.6896     1.0843     4.5282 C.ar         1    LIG   0.0000
   4 S4           1.2116     0.4437     6.0287 S.3          1    LIG   0.0000
   5 C5          -0.0856    -0.5181     5.4850 C.2          1    LIG   0.0000
   6 C6          -0.1358    -0.3266     4.1357 C.2          1    LIG   0.0000
   7 C7           0.8366     0.5567     3.5847 C.ar         1    LIG   0.0000
   8 C8           1.1137     0.9985     2.2930 C.ar         1    LIG   0.0000
   9 N9           0.3274     0.5448     1.2265 N.pl3        1    LIG   0.0000
  10 C10          0.1042     1.3959     0.0512 C.3          1    LIG   0.0000
  11 C11          0.4120     0.6258    -1.2298 C.3          1    LIG   0.0000
  12 N12         -0.0763    -0.7606    -1.2433 N.pl3        1    LIG   0.0000
  13 N13         -0.3016    -1.5943    -2.2385 N.2          1    LIG   0.0000
  14 N14         -0.6825    -2.7312    -1.8437 N.2          1    LIG   0.0000
  15 C15         -0.7536    -2.6873    -0.4813 C.2          1    LIG   0.0000
  16 C16         -0.3791    -1.4348    -0.1036 C.2          1    LIG   0.0000
  17 C17         -0.2976    -0.7865     1.2694 C.3          1    LIG   0.0000
  18 N18          2.1155     1.8530     2.0250 N.ar         1    LIG   0.0000
  19 H            3.6581     2.9762     2.7399 H            1    LIG   0.0000
  20 H            3.3132     2.3072     5.0394 H            1    LIG   0.0000
  21 H           -0.6829    -1.0992     6.0377 H            1    LIG   0.0000
  22 H           -0.8184    -0.7817     3.5640 H            1    LIG   0.0000
  23 H            0.7012     2.1963     0.1060 H            1    LIG   0.0000
  24 H           -0.8506     1.6926     0.0359 H            1    LIG   0.0000
  25 H           -0.0096     1.1123    -1.9950 H            1    LIG   0.0000
  26 H            1.4043     0.6081    -1.3522 H            1    LIG   0.0000
  27 H           -1.0287    -3.4339     0.1243 H            1    LIG   0.0000
  28 H           -1.2233    -0.6948     1.6363 H            1    LIG   0.0000
  29 H            0.2425    -1.3754     1.8707 H            1    LIG   0.0000
@<TRIPOS>BOND
   1        1        2 ar
   2        2        3 ar
   3        3        4 1
   4        4        5 1
   5        5        6 2
   6        6        7 1
   7        7        3 ar
   8        7        8 ar
   9        8        9 1
  10        9       10 1
  11       10       11 1
  12       11       12 1
  13       12       13 1
  14       13       14 2
  15       14       15 1
  16       15       16 2
  17       16       12 1
  18       16       17 1
  19       17        9 1
  20        8       18 ar
  21       18        1 ar
  22        1       19 1
  23        2       20 1
  24        5       21 1
  25        6       22 1
  26       10       23 1
  27       10       24 1
  28       11       25 1
  29       11       26 1
  30       15       27 1
  31       17       28 1
  32       17       29 1

@<TRIPOS>MOLECULE

  29   32
SMALL
USER_CHARGES
@<TRIPOS>ATOM
   1 C1           1.1786     2.1450     4.3504 C.ar         1    LIG   0.0000
   2 C2           2.5458     1.9442     4.4471 C.ar         1    LIG   0.0000
   3 C3           3.1254     1.2462     3.4006 C.ar         1    LIG   0.0000
   4 S4           4.7693     0.8456     3.2345 S.3          1    LIG   0.0000
   5 C5           4.6752     0.0290     1.7420 C.2          1    LIG   0.0000
   6 C6           3.3587     0.0734     1.3890 C.2          1    LIG   0.0000
   7 C7           2.4828     0.7413     2.2923 C.ar         1    LIG   0.0000
   8 C8           1.1137     0.9985     2.2930 C.ar         1    LIG   0.0000
   9 N9           0.3274     0.5448     1.2265 N.pl3        1    LIG   0.0000
  10 C10          0.1042     1.3959     0.0512 C.3          1    LIG   0.0000
  11 C11          0.4120     0.6258    -1.2298 C.3          1    LIG   0.0000
  12 N12         -0.0763    -0.7606    -1.2433 N.pl3        1    LIG   0.0000
  13 N13         -0.3016    -1.5943    -2.2385 N.2          1    LIG   0.0000
  14 N14         -0.6825    -2.7312    -1.8437 N.2          1    LIG   0.0000
  15 C15         -0.7536    -2.6873    -0.4813 C.2          1    LIG   0.0000
  16 C16         -0.3791    -1.4348    -0.1036 C.2          1    LIG   0.0000
  17 C17         -0.2976    -0.7865     1.2694 C.3          1    LIG   0.0000
  18 N18          0.5091     1.6708     3.2869 N.ar         1    LIG   0.0000
  19 H            0.6920     2.6410     5.0695 H            1    LIG   0.0000
  20 H            3.0798     2.2815     5.2224 H            1    LIG   0.0000
  21 H            5.4256    -0.3931     1.2333 H            1    LIG   0.0000
  22 H            3.0261    -0.3406     0.5416 H            1    LIG   0.0000
  23 H            0.7012     2.1963     0.1060 H            1    LIG   0.0000
  24 H           -0.8506     1.6926     0.0359 H            1    LIG   0.0000
  25 H           -0.0096     1.1123    -1.9950 H            1    LIG   0.0000
  26 H            1.4043     0.6081    -1.3522 H            1    LIG   0.0000
  27 H           -1.0287    -3.4339     0.1243 H            1    LIG   0.0000
  28 H           -1.2233    -0.6948     1.6363 H            1    LIG   0.0000
  29 H            0.2425    -1.3754     1.8707 H            1    LIG   0.0000
@<TRIPOS>BOND
   1        1        2 ar
   2        2        3 ar
   3        3        4 1
   4        4        5 1
   5        5        6 2
   6        6        7 1
   7        7        3 ar
   8        7        8 ar
   9        8        9 1
  10        9       10 1
  11       10       11 1
  12       11       12 1
  13       12       13 1
  14       13       14 2
  15       14       15 1
  16       15       16 2
  17       16       12 1
  18       16       17 1
  19       17        9 1
  20        8       18 ar
  21       18        1 ar
  22        1       19 1
  23        2       20 1
  24        5       21 1
  25        6       22 1
  26       10       23 1
  27       10       24 1
  28       11       25 1
  29       11       26 1
  30       15       27 1
  31       17       28 1
  32       17       29 1

@<TRIPOS>MOLECULE

  29   32
SMALL
USER_CHARGES
@<TRIPOS>ATOM
   1 C1           1.9455    -3.7344     1.1890 C.ar         1    LIG   0.0000
   2 C2           2.1185    -3.6043     2.5572 C.ar         1    LIG   0.0000
   3 C3           1.9760    -2.3219     3.0609 C.ar         1    LIG   0.0000
   4 S4           2.1279    -1.8468     4.6862 S.3          1    LIG   0.0000
   5 C5           1.8159    -0.1835     4.4877 C.2          1    LIG   0.0000
   6 C6           1.5996    -0.0140     3.1519 C.2          1    LIG   0.0000
   7 C7           1.6840    -1.1836     2.3432 C.ar         1    LIG   0.0000
   8 C8           1.5293    -1.4247     0.9799 C.ar         1    LIG   0.0000
   9 N9           1.2288    -0.3592     0.1220 N.pl3        1    LIG   0.0000
  10 C10          2.2601     0.4524    -0.5328 C.3          1    LIG   0.0000
  11 C11          2.3113     1.6976     0.3224 C.3          1    LIG   0.0000
  12 N12          0.9739     2.2774     0.1629 N.pl3        1    LIG   0.0000
  13 N13          0.6111     3.5361     0.2293 N.2          1    LIG   0.0000
  14 N14         -0.6305     3.6659     0.0301 N.2          1    LIG   0.0000
  15 C15         -1.1634     2.4311    -0.1837 C.2          1    LIG   0.0000
  16 C16         -0.1369     1.5429    -0.0807 C.2          1    LIG   0.0000
  17 C17         -0.1538     0.0289    -0.1800 C.3          1    LIG   0.0000
  18 N18          1.6591    -2.6516     0.4476 N.ar         1    LIG   0.0000
  19 H            2.0335    -4.6310     0.7549 H            1    LIG   0.0000
  20 H            2.3323    -4.3857     3.1434 H            1    LIG   0.0000
  21 H            1.7956     0.5188     5.1992 H            1    LIG   0.0000
  22 H            1.3930     0.8831     2.7613 H            1    LIG   0.0000
  23 H            1.9999     0.6731    -1.4728 H            1    LIG   0.0000
  24 H            3.1417    -0.0194    -0.5330 H            1    LIG   0.0000
  25 H            2.4893     1.4672     1.2790 H            1    LIG   0.0000
  26 H            3.0154     2.3276    -0.0054 H            1    LIG   0.0000
  27 H           -2.1209     2.2184    -0.3783 H            1    LIG   0.0000
  28 H           -0.7875    -0.3644     0.4862 H            1    LIG   0.0000
  29 H           -0.4130    -0.2646    -1.1002 H            1    LIG   0.0000
@<TRIPOS>BOND
   1        1        2 ar
   2        2        3 ar
   3        3        4 1
   4        4        5 1
   5        5        6 2
   6        6        7 1
   7        7        3 ar
   8        7        8 ar
   9        8        9 1
  10        9       10 1
  11       10       11 1
  12       11       12 1
  13       12       13 1
  14       13       14 2
  15       14       15 1
  16       15       16 2
  17       16       12 1
  18       16       17 1
  19       17        9 1
  20        8       18 ar
  21       18        1 ar
  22        1       19 1
  23        2       20 1
  24        5       21 1
  25        6       22 1
  26       10       23 1
  27       10       24 1
  28       11       25 1
  29       11       26 1
  30       15       27 1
  31       17       28 1
  32       17       29 1

@<TRIPOS>MOLECULE

  29   32
SMALL
USER_CHARGES
@<TRIPOS>ATOM
   1 C1           0.8616    -3.5126     1.8441 C.ar         1    LIG   0.0000
   2 C2           2.0018    -3.5803     2.6278 C.ar         1    LIG   0.0000
   3 C3           2.8679    -2.5047     2.5215 C.ar         1    LIG   0.0000
   4 S4           4.3382    -2.2994     3.3500 S.3          1    LIG   0.0000
   5 C5           4.7779    -0.7860     2.7021 C.2          1    LIG   0.0000
   6 C6           3.7731    -0.4568     1.8409 C.2          1    LIG   0.0000
   7 C7           2.7062    -1.3935     1.7246 C.ar         1    LIG   0.0000
   8 C8           1.5293    -1.4247     0.9799 C.ar         1    LIG   0.0000
   9 N9           1.2288    -0.3592     0.1220 N.pl3        1    LIG   0.0000
  10 C10          2.2601     0.4524    -0.5328 C.3          1    LIG   0.0000
  11 C11          2.3113     1.6976     0.3224 C.3          1    LIG   0.0000
  12 N12          0.9739     2.2774     0.1629 N.pl3        1    LIG   0.0000
  13 N13          0.6111     3.5361     0.2293 N.2          1    LIG   0.0000
  14 N14         -0.6305     3.6659     0.0301 N.2          1    LIG   0.0000
  15 C15         -1.1634     2.4311    -0.1837 C.2          1    LIG   0.0000
  16 C16         -0.1369     1.5429    -0.0807 C.2          1    LIG   0.0000
  17 C17         -0.1538     0.0289    -0.1800 C.3          1    LIG   0.0000
  18 N18          0.6607    -2.4475     1.0507 N.ar         1    LIG   0.0000
  19 H            0.1907    -4.2537     1.8688 H            1    LIG   0.0000
  20 H            2.1877    -4.3558     3.2312 H            1    LIG   0.0000
  21 H            5.5981    -0.2528     2.9093 H            1    LIG   0.0000
  22 H            3.7846     0.3963     1.3192 H            1    LIG   0.0000
  23 H            1.9999     0.6731    -1.4728 H            1    LIG   0.0000
  24 H            3.1417    -0.0194    -0.5330 H            1    LIG   0.0000
  25 H            2.4893     1.4672     1.2790 H            1    LIG   0.0000
  26 H            3.0154     2.3276    -0.0054 H            1    LIG   0.0000
  27 H           -2.1209     2.2184    -0.3783 H            1    LIG   0.0000
  28 H           -0.7875    -0.3644     0.4862 H            1    LIG   0.0000
  29 H           -0.4130    -0.2646    -1.1002 H            1    LIG   0.0000
@<TRIPOS>BOND
   1        1        2 ar
   2        2        3 ar
   3        3        4 1
   4        4        5 1
   5        5        6 2
   6        6        7 1
   7        7        3 ar
   8        7        8 ar
   9        8        9 1
  10        9       10 1
  11       10       11 1
  12       11       12 1
  13       12       13 1
  14       13       14 2
  15       14       15 1
  16       15       16 2
  17       16       12 1
  18       16       17 1
  19       17        9 1
  20        8       18 ar
  21       18        1 ar
  22        1       19 1
  23        2       20 1
  24        5       21 1
  25        6       22 1
  26       10       23 1
  27       10       24 1
  28       11       25 1
  29       11       26 1
  30       15       27 1
  31       17       28 1
  32       17       29 1

@<TRIPOS>MOLECULE

  29   32
SMALL
USER_CHARGES
@<TRIPOS>ATOM
   1 C1           1.3313    -2.3325     3.1452 C.ar         1    LIG   0.0000
   2 C2           2.0525    -3.4533     2.7678 C.ar         1    LIG   0.0000
   3 C3           2.4810    -3.4759     1.4508 C.ar         1    LIG   0.0000
   4 S4           3.3800    -4.7061     0.6967 S.3          1    LIG   0.0000
   5 C5           3.5023    -4.0083    -0.8530 C.2          1    LIG   0.0000
   6 C6           2.8356    -2.8217    -0.7679 C.2          1    LIG   0.0000
   7 C7           2.2618    -2.5069     0.4974 C.ar         1    LIG   0.0000
   8 C8           1.5293    -1.4247     0.9799 C.ar         1    LIG   0.0000
   9 N9           1.2288    -0.3592     0.1220 N.pl3        1    LIG   0.0000
  10 C10          2.2601     0.4524    -0.5328 C.3          1    LIG   0.0000
  11 C11          2.3113     1.6976     0.3224 C.3          1    LIG   0.0000
  12 N12          0.9739     2.2774     0.1629 N.pl3        1    LIG   0.0000
  13 N13          0.6111     3.5361     0.2293 N.2          1    LIG   0.0000
  14 N14         -0.6305     3.6659     0.0301 N.2          1    LIG   0.0000
  15 C15         -1.1634     2.4311    -0.1837 C.2          1    LIG   0.0000
  16 C16         -0.1369     1.5429    -0.0807 C.2          1    LIG   0.0000
  17 C17         -0.1538     0.0289    -0.1800 C.3          1    LIG   0.0000
  18 N18          1.0929    -1.3607     2.2491 N.ar         1    LIG   0.0000
  19 H            0.9895    -2.2472     4.0811 H            1    LIG   0.0000
  20 H            2.2510    -4.1980     3.4049 H            1    LIG   0.0000
  21 H            3.9644    -4.3881    -1.6544 H            1    LIG   0.0000
  22 H            2.7540    -2.2057    -1.5514 H            1    LIG   0.0000
  23 H            1.9999     0.6731    -1.4728 H            1    LIG   0.0000
  24 H            3.1417    -0.0194    -0.5330 H            1    LIG   0.0000
  25 H            2.4893     1.4672     1.2790 H            1    LIG   0.0000
  26 H            3.0154     2.3276    -0.0054 H            1    LIG   0.0000
  27 H           -2.1209     2.2184    -0.3783 H            1    LIG   0.0000
  28 H           -0.7875    -0.3644     0.4862 H            1    LIG   0.0000
  29 H           -0.4130    -0.2646    -1.1002 H            1    LIG   0.0000
@<TRIPOS>BOND
   1        1        2 ar
   2        2        3 ar
   3        3        4 1
   4        4        5 1
   5        5        6 2
   6        6        7 1
   7        7        3 ar
   8        7        8 ar
   9        8        9 1
  10        9       10 1
  11       10       11 1
  12       11       12 1
  13       12       13 1
  14       13       14 2
  15       14       15 1
  16       15       16 2
  17       16       12 1
  18       16       17 1
  19       17        9 1
  20        8       18 ar
  21       18        1 ar
  22        1       19 1
  23        2       20 1
  24        5       21 1
  25        6       22 1
  26       10       23 1
  27       10       24 1
  28       11       25 1
  29       11       26 1
  30       15       27 1
  31       17       28 1
  32       17       29 1

