@<TRIPOS>MOLECULE
*****
 29 32 0 0 0
SMALL
USER_CHARGES

@<TRIPOS>ATOM
      1 C1          2.9230    2.3423    2.9803 C.ar    1  LIG1        0.0000
      2 C2          2.7336    1.9653    4.2997 C.ar    1  LIG1        0.0000
      3 C3          1.6896    1.0843    4.5282 C.ar    1  LIG1        0.0000
      4 S4          1.2116    0.4437    6.0287 S.3     1  LIG1        0.0000
      5 C5         -0.0856   -0.5181    5.4850 C.2     1  LIG1        0.0000
      6 C6         -0.1358   -0.3266    4.1357 C.2     1  LIG1        0.0000
      7 C7          0.8366    0.5567    3.5847 C.ar    1  LIG1        0.0000
      8 C8          1.1137    0.9985    2.2930 C.ar    1  LIG1        0.0000
      9 N9          0.3274    0.5448    1.2265 N.pl3   1  LIG1        0.0000
     10 C10         0.1042    1.3959    0.0512 C.3     1  LIG1        0.0000
     11 C11         0.4120    0.6258   -1.2298 C.3     1  LIG1        0.0000
     12 N12        -0.0763   -0.7606   -1.2433 N.pl3   1  LIG1        0.0000
     13 N13        -0.3016   -1.5943   -2.2385 N.2     1  LIG1        0.0000
     14 N14        -0.6825   -2.7312   -1.8437 N.2     1  LIG1        0.0000
     15 C15        -0.7536   -2.6873   -0.4813 C.2     1  LIG1        0.0000
     16 C16        -0.3791   -1.4348   -0.1036 C.2     1  LIG1        0.0000
     17 C17        -0.2976   -0.7865    1.2694 C.3     1  LIG1        0.0000
     18 N18         2.1155    1.8530    2.0250 N.ar    1  LIG1        0.0000
     19 H           3.6581    2.9762    2.7399 H       1  LIG1        0.0000
     20 H           3.3132    2.3072    5.0394 H       1  LIG1        0.0000
     21 H          -0.6829   -1.0992    6.0377 H       1  LIG1        0.0000
     22 H          -0.8184   -0.7817    3.5640 H       1  LIG1        0.0000
     23 H           0.7012    2.1963    0.1060 H       1  LIG1        0.0000
     24 H          -0.8506    1.6926    0.0359 H       1  LIG1        0.0000
     25 H          -0.0096    1.1123   -1.9950 H       1  LIG1        0.0000
     26 H           1.4043    0.6081   -1.3522 H       1  LIG1        0.0000
     27 H          -1.0287   -3.4339    0.1243 H       1  LIG1        0.0000
     28 H          -1.2233   -0.6948    1.6363 H       1  LIG1        0.0000
     29 H           0.2425   -1.3754    1.8707 H       1  LIG1        0.0000
@<TRIPOS>BOND
     1     1     2   ar
     2     2     3   ar
     3     3     4    1
     4     4     5    1
     5     5     6    2
     6     6     7    1
     7     7     3   ar
     8     7     8   ar
     9     8     9    1
    10     9    10    1
    11    10    11    1
    12    11    12    1
    13    12    13    1
    14    13    14    2
    15    14    15    1
    16    15    16    2
    17    16    12    1
    18    16    17    1
    19    17     9    1
    20     8    18   ar
    21    18     1   ar
    22     1    19    1
    23     2    20    1
    24     5    21    1
    25     6    22    1
    26    10    23    1
    27    10    24    1
    28    11    25    1
    29    11    26    1
    30    15    27    1
    31    17    28    1
    32    17    29    1
