@<TRIPOS>MOLECULE
*****
 29 32 0 0 0
SMALL
USER_CHARGES

@<TRIPOS>ATOM
      1 C1          4.2183    1.0584    2.4703 C.ar    1  LIG1        0.0000
      2 C2          4.1233    0.3581    3.6617 C.ar    1  LIG1        0.0000
      3 C3          2.9928   -0.4289    3.8068 C.ar    1  LIG1        0.0000
      4 S4          2.5955   -1.3981    5.1459 S.3     1  LIG1        0.0000
      5 C5          1.1183   -2.0223    4.5697 C.2     1  LIG1        0.0000
      6 C6          0.9472   -1.4641    3.3373 C.2     1  LIG1        0.0000
      7 C7          1.9717   -0.5786    2.8951 C.ar    1  LIG1        0.0000
      8 C8          2.1656    0.1662    1.7339 C.ar    1  LIG1        0.0000
      9 N9          1.2073    0.1133    0.7140 N.pl3   1  LIG1        0.0000
     10 C10         0.5253    1.3498    0.2880 C.3     1  LIG1        0.0000
     11 C11        -0.8205    1.1005   -0.3852 C.3     1  LIG1        0.0000
     12 N12        -1.3803   -0.2477   -0.1623 N.pl3   1  LIG1        0.0000
     13 N13        -2.6143   -0.7011   -0.0955 N.2     1  LIG1        0.0000
     14 N14        -2.6646   -1.9518    0.0662 N.2     1  LIG1        0.0000
     15 C15        -1.3813   -2.4068    0.1408 C.2     1  LIG1        0.0000
     16 C16        -0.5721   -1.3177    0.0302 C.2     1  LIG1        0.0000
     17 C17         0.9327   -1.1950    0.1088 C.3     1  LIG1        0.0000
     18 N18         3.2463    0.9434    1.5505 N.ar    1  LIG1        0.0000
     19 H           5.0074    1.6472    2.2958 H       1  LIG1        0.0000
     20 H           4.8255    0.4169    4.3712 H       1  LIG1        0.0000
     21 H           0.5071   -2.6617    5.0360 H       1  LIG1        0.0000
     22 H           0.1457   -1.6656    2.7742 H       1  LIG1        0.0000
     23 H           1.1178    1.8319   -0.3575 H       1  LIG1        0.0000
     24 H           0.3750    1.9222    1.0940 H       1  LIG1        0.0000
     25 H          -1.4737    1.7713   -0.0340 H       1  LIG1        0.0000
     26 H          -0.7054    1.2313   -1.3699 H       1  LIG1        0.0000
     27 H          -1.0908   -3.3568    0.2547 H       1  LIG1        0.0000
     28 H           1.3106   -1.9258    0.6773 H       1  LIG1        0.0000
     29 H           1.3326   -1.2441   -0.8064 H       1  LIG1        0.0000
@<TRIPOS>BOND
     1     1     2   ar
     2     2     3   ar
     3     3     4    1
     4     4     5    1
     5     5     6    2
     6     6     7    1
     7     7     3   ar
     8     7     8   ar
     9     8     9    1
    10     9    10    1
    11    10    11    1
    12    11    12    1
    13    12    13    1
    14    13    14    2
    15    14    15    1
    16    15    16    2
    17    16    12    1
    18    16    17    1
    19    17     9    1
    20     8    18   ar
    21    18     1   ar
    22     1    19    1
    23     2    20    1
    24     5    21    1
    25     6    22    1
    26    10    23    1
    27    10    24    1
    28    11    25    1
    29    11    26    1
    30    15    27    1
    31    17    28    1
    32    17    29    1
