@<TRIPOS>MOLECULE
*****
 29 32 0 0 0
SMALL
USER_CHARGES

@<TRIPOS>ATOM
      1 C1          1.3313   -2.3325    3.1452 C.ar    1  LIG1        0.0000
      2 C2          2.0525   -3.4533    2.7678 C.ar    1  LIG1        0.0000
      3 C3          2.4810   -3.4759    1.4508 C.ar    1  LIG1        0.0000
      4 S4          3.3800   -4.7061    0.6967 S.3     1  LIG1        0.0000
      5 C5          3.5023   -4.0083   -0.8530 C.2     1  LIG1        0.0000
      6 C6          2.8356   -2.8217   -0.7679 C.2     1  LIG1        0.0000
      7 C7          2.2618   -2.5069    0.4974 C.ar    1  LIG1        0.0000
      8 C8          1.5293   -1.4247    0.9799 C.ar    1  LIG1        0.0000
      9 N9          1.2288   -0.3592    0.1220 N.pl3   1  LIG1        0.0000
     10 C10         2.2601    0.4524   -0.5328 C.3     1  LIG1        0.0000
     11 C11         2.3113    1.6976    0.3224 C.3     1  LIG1        0.0000
     12 N12         0.9739    2.2774    0.1629 N.pl3   1  LIG1        0.0000
     13 N13         0.6111    3.5361    0.2293 N.2     1  LIG1        0.0000
     14 N14        -0.6305    3.6659    0.0301 N.2     1  LIG1        0.0000
     15 C15        -1.1634    2.4311   -0.1837 C.2     1  LIG1        0.0000
     16 C16        -0.1369    1.5429   -0.0807 C.2     1  LIG1        0.0000
     17 C17        -0.1538    0.0289   -0.1800 C.3     1  LIG1        0.0000
     18 N18         1.0929   -1.3607    2.2491 N.ar    1  LIG1        0.0000
     19 H           0.9895   -2.2472    4.0811 H       1  LIG1        0.0000
     20 H           2.2510   -4.1980    3.4049 H       1  LIG1        0.0000
     21 H           3.9644   -4.3881   -1.6544 H       1  LIG1        0.0000
     22 H           2.7540   -2.2057   -1.5514 H       1  LIG1        0.0000
     23 H           1.9999    0.6731   -1.4728 H       1  LIG1        0.0000
     24 H           3.1417   -0.0194   -0.5330 H       1  LIG1        0.0000
     25 H           2.4893    1.4672    1.2790 H       1  LIG1        0.0000
     26 H           3.0154    2.3276   -0.0054 H       1  LIG1        0.0000
     27 H          -2.1209    2.2184   -0.3783 H       1  LIG1        0.0000
     28 H          -0.7875   -0.3644    0.4862 H       1  LIG1        0.0000
     29 H          -0.4130   -0.2646   -1.1002 H       1  LIG1        0.0000
@<TRIPOS>BOND
     1     1     2   ar
     2     2     3   ar
     3     3     4    1
     4     4     5    1
     5     5     6    2
     6     6     7    1
     7     7     3   ar
     8     7     8   ar
     9     8     9    1
    10     9    10    1
    11    10    11    1
    12    11    12    1
    13    12    13    1
    14    13    14    2
    15    14    15    1
    16    15    16    2
    17    16    12    1
    18    16    17    1
    19    17     9    1
    20     8    18   ar
    21    18     1   ar
    22     1    19    1
    23     2    20    1
    24     5    21    1
    25     6    22    1
    26    10    23    1
    27    10    24    1
    28    11    25    1
    29    11    26    1
    30    15    27    1
    31    17    28    1
    32    17    29    1
