@<TRIPOS>MOLECULE
*****
 29 32 0 0 0
SMALL
USER_CHARGES

@<TRIPOS>ATOM
      1 C1          5.1211   -0.0964   -0.4151 C.ar    1  LIG1        0.0000
      2 C2          5.7238    0.7543    0.4970 C.ar    1  LIG1        0.0000
      3 C3          4.8634    1.4350    1.3423 C.ar    1  LIG1        0.0000
      4 S4          5.2984    2.5409    2.5581 S.3     1  LIG1        0.0000
      5 C5          3.7350    2.9137    3.1240 C.2     1  LIG1        0.0000
      6 C6          2.8868    2.1732    2.3547 C.2     1  LIG1        0.0000
      7 C7          3.4893    1.3482    1.3618 C.ar    1  LIG1        0.0000
      8 C8          2.9862    0.4667    0.4077 C.ar    1  LIG1        0.0000
      9 N9          1.6024    0.2745    0.3096 N.pl3   1  LIG1        0.0000
     10 C10         0.7433    1.4263    0.0008 C.3     1  LIG1        0.0000
     11 C11        -0.7109    1.2054    0.3905 C.3     1  LIG1        0.0000
     12 N12        -1.1031   -0.0677   -0.2238 N.pl3   1  LIG1        0.0000
     13 N13        -2.1934   -0.4161   -0.8677 N.2     1  LIG1        0.0000
     14 N14        -2.1142   -1.6049   -1.2923 N.2     1  LIG1        0.0000
     15 C15        -0.9245   -2.1281   -0.8837 C.2     1  LIG1        0.0000
     16 C16        -0.2861   -1.1420   -0.1939 C.2     1  LIG1        0.0000
     17 C17         1.0561   -1.0754    0.5161 C.3     1  LIG1        0.0000
     18 N18         3.7832   -0.2140   -0.4331 N.ar    1  LIG1        0.0000
     19 H           5.6798   -0.6208   -1.0576 H       1  LIG1        0.0000
     20 H           6.7162    0.8695    0.5422 H       1  LIG1        0.0000
     21 H           3.4914    3.5418    3.8630 H       1  LIG1        0.0000
     22 H           1.8954    2.2075    2.4807 H       1  LIG1        0.0000
     23 H           0.7865    1.6013   -0.9829 H       1  LIG1        0.0000
     24 H           1.0885    2.2232    0.4965 H       1  LIG1        0.0000
     25 H          -0.8004    1.1538    1.3852 H       1  LIG1        0.0000
     26 H          -1.2811    1.9497    0.0427 H       1  LIG1        0.0000
     27 H          -0.5866   -3.0533   -1.0561 H       1  LIG1        0.0000
     28 H           0.9337   -1.2478    1.4935 H       1  LIG1        0.0000
     29 H           1.6788   -1.7575    0.1327 H       1  LIG1        0.0000
@<TRIPOS>BOND
     1     1     2   ar
     2     2     3   ar
     3     3     4    1
     4     4     5    1
     5     5     6    2
     6     6     7    1
     7     7     3   ar
     8     7     8   ar
     9     8     9    1
    10     9    10    1
    11    10    11    1
    12    11    12    1
    13    12    13    1
    14    13    14    2
    15    14    15    1
    16    15    16    2
    17    16    12    1
    18    16    17    1
    19    17     9    1
    20     8    18   ar
    21    18     1   ar
    22     1    19    1
    23     2    20    1
    24     5    21    1
    25     6    22    1
    26    10    23    1
    27    10    24    1
    28    11    25    1
    29    11    26    1
    30    15    27    1
    31    17    28    1
    32    17    29    1
