@<TRIPOS>MOLECULE
*****
 29 32 0 0 0
SMALL
USER_CHARGES

@<TRIPOS>ATOM
      1 C1          4.9655    1.1542   -0.6700 C.ar    1  LIG1        0.0000
      2 C2          5.7071    0.8889    0.4695 C.ar    1  LIG1        0.0000
      3 C3          4.9914    0.4058    1.5524 C.ar    1  LIG1        0.0000
      4 S4          5.6157   -0.0094    3.0783 S.3     1  LIG1        0.0000
      5 C5          4.1604   -0.5019    3.8151 C.2     1  LIG1        0.0000
      6 C6          3.1989   -0.3334    2.8628 C.2     1  LIG1        0.0000
      7 C7          3.6360    0.1685    1.6032 C.ar    1  LIG1        0.0000
      8 C8          2.9862    0.4667    0.4077 C.ar    1  LIG1        0.0000
      9 N9          1.6024    0.2745    0.3096 N.pl3   1  LIG1        0.0000
     10 C10         0.7433    1.4263    0.0008 C.3     1  LIG1        0.0000
     11 C11        -0.7109    1.2054    0.3905 C.3     1  LIG1        0.0000
     12 N12        -1.1031   -0.0677   -0.2238 N.pl3   1  LIG1        0.0000
     13 N13        -2.1934   -0.4161   -0.8677 N.2     1  LIG1        0.0000
     14 N14        -2.1142   -1.6049   -1.2923 N.2     1  LIG1        0.0000
     15 C15        -0.9245   -2.1281   -0.8837 C.2     1  LIG1        0.0000
     16 C16        -0.2861   -1.1420   -0.1939 C.2     1  LIG1        0.0000
     17 C17         1.0561   -1.0754    0.5161 C.3     1  LIG1        0.0000
     18 N18         3.6399    0.9378   -0.6676 N.ar    1  LIG1        0.0000
     19 H           5.4152    1.5055   -1.4912 H       1  LIG1        0.0000
     20 H           6.6954    1.0366    0.5077 H       1  LIG1        0.0000
     21 H           4.0375   -0.8420    4.7474 H       1  LIG1        0.0000
     22 H           2.2388   -0.5505    3.0391 H       1  LIG1        0.0000
     23 H           0.7865    1.6013   -0.9829 H       1  LIG1        0.0000
     24 H           1.0885    2.2232    0.4965 H       1  LIG1        0.0000
     25 H          -0.8004    1.1538    1.3852 H       1  LIG1        0.0000
     26 H          -1.2811    1.9497    0.0427 H       1  LIG1        0.0000
     27 H          -0.5866   -3.0533   -1.0561 H       1  LIG1        0.0000
     28 H           0.9337   -1.2478    1.4935 H       1  LIG1        0.0000
     29 H           1.6788   -1.7575    0.1327 H       1  LIG1        0.0000
@<TRIPOS>BOND
     1     1     2   ar
     2     2     3   ar
     3     3     4    1
     4     4     5    1
     5     5     6    2
     6     6     7    1
     7     7     3   ar
     8     7     8   ar
     9     8     9    1
    10     9    10    1
    11    10    11    1
    12    11    12    1
    13    12    13    1
    14    13    14    2
    15    14    15    1
    16    15    16    2
    17    16    12    1
    18    16    17    1
    19    17     9    1
    20     8    18   ar
    21    18     1   ar
    22     1    19    1
    23     2    20    1
    24     5    21    1
    25     6    22    1
    26    10    23    1
    27    10    24    1
    28    11    25    1
    29    11    26    1
    30    15    27    1
    31    17    28    1
    32    17    29    1
