@<TRIPOS>MOLECULE

  15   16
SMALL
USER_CHARGES
@<TRIPOS>ATOM
   1 F1           3.5588    -3.1543     0.1864 F            1    LIG   0.0000
   2 C2           2.9504    -2.1302    -0.4057 C.3          1    LIG   0.0000
   3 F3           3.0583    -2.3093    -1.7232 F            1    LIG   0.0000
   4 O4           1.6068    -1.9989     0.0238 O.3          1    LIG   0.0000
   5 C5           1.2627    -0.6937     0.0144 C.ar         1    LIG   0.0000
   6 C6           0.0453    -0.0194     0.0161 C.ar         1    LIG   0.0000
   7 C7          -0.0162     1.3715     0.0171 C.ar         1    LIG   0.0000
   8 Cl8         -1.5700     2.2421     0.0301 Cl           1    LIG   0.0000
   9 C9           1.1747     2.0892     0.0131 C.ar         1    LIG   0.0000
  10 Cl10         1.1467     3.8694     0.0153 Cl           1    LIG   0.0000
  11 C11          2.3867     1.4060     0.0137 C.ar         1    LIG   0.0000
  12 C12          2.4382     0.0156     0.0150 C.ar         1    LIG   0.0000
  13 O13          3.4417    -0.8815     0.0320 O.3          1    LIG   0.0000
  14 H           -0.8048    -0.5460     0.0165 H            1    LIG   0.0000
  15 H            3.2407     1.9263     0.0132 H            1    LIG   0.0000
@<TRIPOS>BOND
   1        1        2 1
   2        2        3 1
   3        2        4 1
   4        4        5 1
   5        5        6 ar
   6        6        7 ar
   7        7        8 1
   8        7        9 ar
   9        9       10 1
  10        9       11 ar
  11       11       12 ar
  12       12        5 ar
  13       12       13 1
  14       13        2 1
  15        6       14 1
  16       11       15 1

