@<TRIPOS>MOLECULE
*****
 28 29 0 0 0
SMALL
USER_CHARGES

@<TRIPOS>ATOM
      1 C1         -0.4103   -2.5714    1.9678 C.3     1  LIG1        0.0000
      2 C2          0.5240   -2.9935    0.8447 C.2     1  LIG1        0.0000
      3 N3          0.8156   -4.2247    0.5084 N.2     1  LIG1        0.0000
      4 N4          1.6612   -4.2111   -0.5089 N.pl3   1  LIG1        0.0000
      5 C5          1.9392   -2.9249   -0.8628 C.2     1  LIG1        0.0000
      6 C6          1.2280   -2.1267   -0.0173 C.2     1  LIG1        0.0000
      7 C7          1.2019   -0.6770   -0.0109 C.ar    1  LIG1        0.0000
      8 C8          2.3968    0.0350   -0.0138 C.ar    1  LIG1        0.0000
      9 C9          2.3798    1.4258   -0.0082 C.ar    1  LIG1        0.0000
     10 C10         1.1541    2.0841    0.0011 C.ar    1  LIG1        0.0000
     11 O11         1.1528    3.4340    0.0090 O.3     1  LIG1        0.0000
     12 C12        -0.1294    4.0440    0.0183 C.3     1  LIG1        0.0000
     13 C13         0.0288    5.5558    0.0265 C.3     1  LIG1        0.0000
     14 F14         0.0756    6.0034   -1.2250 F       1  LIG1        0.0000
     15 F15        -1.0055    6.1063    0.6558 F       1  LIG1        0.0000
     16 F16         1.1546    5.8803    0.6558 F       1  LIG1        0.0000
     17 N17         0.0104    1.3796    0.0041 N.ar    1  LIG1        0.0000
     18 C18         0.0085    0.0384   -0.0021 C.ar    1  LIG1        0.0000
     19 H           2.0399   -5.0236   -0.9521 H       1  LIG1        0.0000
     20 H          -0.4540   -1.5731    2.0076 H       1  LIG1        0.0000
     21 H          -1.3246   -2.9385    1.7965 H       1  LIG1        0.0000
     22 H          -0.0667   -2.9249    2.8378 H       1  LIG1        0.0000
     23 H           2.5461   -2.6252   -1.5989 H       1  LIG1        0.0000
     24 H           3.2692   -0.4537   -0.0199 H       1  LIG1        0.0000
     25 H           3.2349    1.9443   -0.0108 H       1  LIG1        0.0000
     26 H          -0.6294    3.7568    0.8353 H       1  LIG1        0.0000
     27 H          -0.6365    3.7664   -0.7977 H       1  LIG1        0.0000
     28 H          -0.8619   -0.4538   -0.0004 H       1  LIG1        0.0000
@<TRIPOS>BOND
     1     1     2    1
     2     2     3    2
     3     3     4    1
     4     4     5    1
     5     5     6    2
     6     6     2    1
     7     6     7    1
     8     7     8   ar
     9     8     9   ar
    10     9    10   ar
    11    10    11    1
    12    11    12    1
    13    12    13    1
    14    13    14    1
    15    13    15    1
    16    13    16    1
    17    10    17   ar
    18    17    18   ar
    19    18     7   ar
    20     4    19    1
    21     1    20    1
    22     1    21    1
    23     1    22    1
    24     5    23    1
    25     8    24    1
    26     9    25    1
    27    12    26    1
    28    12    27    1
    29    18    28    1
