@<TRIPOS>MOLECULE
*****
 28 29 0 0 0
SMALL
USER_CHARGES

@<TRIPOS>ATOM
      1 C1         -0.4354   -2.5544   -1.9851 C.3     1  LIG1        0.0000
      2 C2          0.5158   -2.9860   -0.8799 C.2     1  LIG1        0.0000
      3 N3          0.8171   -4.2199   -0.5626 N.2     1  LIG1        0.0000
      4 N4          1.6721   -4.2151    0.4468 N.pl3   1  LIG1        0.0000
      5 C5          1.9508   -2.9321    0.8114 C.2     1  LIG1        0.0000
      6 C6          1.2280   -2.1267   -0.0173 C.2     1  LIG1        0.0000
      7 C7          1.2019   -0.6770   -0.0109 C.ar    1  LIG1        0.0000
      8 C8          2.3968    0.0350   -0.0138 C.ar    1  LIG1        0.0000
      9 C9          2.3798    1.4258   -0.0082 C.ar    1  LIG1        0.0000
     10 C10         1.1541    2.0841    0.0011 C.ar    1  LIG1        0.0000
     11 O11         1.1528    3.4340    0.0090 O.3     1  LIG1        0.0000
     12 C12        -0.1294    4.0440    0.0183 C.3     1  LIG1        0.0000
     13 C13        -0.6877    4.0287    1.4320 C.3     1  LIG1        0.0000
     14 F14        -0.3138    5.1351    2.0683 F       1  LIG1        0.0000
     15 F15        -2.0156    3.9723    1.3837 F       1  LIG1        0.0000
     16 F16        -0.2221    2.9652    2.0809 F       1  LIG1        0.0000
     17 N17         0.0104    1.3796    0.0041 N.ar    1  LIG1        0.0000
     18 C18         0.0085    0.0384   -0.0021 C.ar    1  LIG1        0.0000
     19 H           2.0565   -5.0314    0.8780 H       1  LIG1        0.0000
     20 H          -0.4838   -1.5559   -2.0121 H       1  LIG1        0.0000
     21 H          -0.1022   -2.8959   -2.8639 H       1  LIG1        0.0000
     22 H          -1.3457   -2.9275   -1.8060 H       1  LIG1        0.0000
     23 H           2.5655   -2.6388    1.5437 H       1  LIG1        0.0000
     24 H           3.2692   -0.4537   -0.0199 H       1  LIG1        0.0000
     25 H           3.2349    1.9443   -0.0108 H       1  LIG1        0.0000
     26 H          -0.7434    3.5387   -0.5881 H       1  LIG1        0.0000
     27 H          -0.0512    4.9892   -0.2990 H       1  LIG1        0.0000
     28 H          -0.8619   -0.4538   -0.0004 H       1  LIG1        0.0000
@<TRIPOS>BOND
     1     1     2    1
     2     2     3    2
     3     3     4    1
     4     4     5    1
     5     5     6    2
     6     6     2    1
     7     6     7    1
     8     7     8   ar
     9     8     9   ar
    10     9    10   ar
    11    10    11    1
    12    11    12    1
    13    12    13    1
    14    13    14    1
    15    13    15    1
    16    13    16    1
    17    10    17   ar
    18    17    18   ar
    19    18     7   ar
    20     4    19    1
    21     1    20    1
    22     1    21    1
    23     1    22    1
    24     5    23    1
    25     8    24    1
    26     9    25    1
    27    12    26    1
    28    12    27    1
    29    18    28    1
