@<TRIPOS>MOLECULE

  68   71
SMALL
USER_CHARGES
@<TRIPOS>ATOM
   1 C1           1.9862     2.1088     8.2760 C.3          1    LIG   0.0000
   2 O2           2.7113     2.7955     7.2666 O.3          1    LIG   0.0000
   3 C3           2.3530     2.4238     5.9438 C.3          1    LIG   0.0000
   4 C4           3.1872     3.2169     4.9511 C.3          1    LIG   0.0000
   5 C5           2.8037     2.8192     3.5357 C.2          1    LIG   0.0000
   6 N6           3.3203     3.3017     2.4340 N.2          1    LIG   0.0000
   7 O7           2.7648     2.7409     1.4446 O.2          1    LIG   0.0000
   8 C8           1.8781     1.8781     1.8781 C.2          1    LIG   0.0000
   9 C9           1.0000     1.0000     1.0000 C.3          1    LIG   0.0000
  10 N10         -0.2538     1.7059     0.6992 N.pl3        1    LIG   0.0000
  11 C11         -1.4752     1.3882     1.4530 C.3          1    LIG   0.0000
  12 C12         -0.2847     2.6803    -0.3046 C.2          1    LIG   0.0000
  13 N13         -1.1803     3.6282    -0.4465 N.2          1    LIG   0.0000
  14 N14         -0.8840     4.3469    -1.5147 N.2          1    LIG   0.0000
  15 C15          0.2098     3.8941    -2.0693 C.2          1    LIG   0.0000
  16 C16          0.8600     4.4206    -3.2533 C.ar         1    LIG   0.0000
  17 C17          0.7524     5.7760    -3.5471 C.ar         1    LIG   0.0000
  18 C18          1.3776     6.2764    -4.6844 C.ar         1    LIG   0.0000
  19 C19          2.0992     5.4240    -5.5131 C.ar         1    LIG   0.0000
  20 C20          2.7787     5.9789    -6.7535 C.3          1    LIG   0.0000
  21 C21          1.7346     6.5941    -7.6710 C.3          1    LIG   0.0000
  22 C22          3.7855     7.0426    -6.3467 C.3          1    LIG   0.0000
  23 C23          3.4960     4.8553    -7.4838 C.3          1    LIG   0.0000
  24 C24          2.2026     4.0696    -5.2112 C.ar         1    LIG   0.0000
  25 C25          1.5807     3.5608    -4.0762 C.ar         1    LIG   0.0000
  26 N26          0.6071     2.8302    -1.3228 N.pl3        1    LIG   0.0000
  27 C27          1.7934     1.9992    -1.5670 C.3          1    LIG   0.0000
  28 C28          1.3573     0.6142    -2.0243 C.2          1    LIG   0.0000
  29 S29         -0.2292     0.0452    -2.2144 S.3          1    LIG   0.0000
  30 C30          0.1771    -1.5266    -2.7255 C.2          1    LIG   0.0000
  31 C31         -0.8545    -2.5870    -3.0842 C.3          1    LIG   0.0000
  32 N32          1.4903    -1.6100    -2.7391 N.2          1    LIG   0.0000
  33 C33          2.1385    -0.4588    -2.3552 C.2          1    LIG   0.0000
  34 C34          3.6481    -0.3275    -2.2812 C.3          1    LIG   0.0000
  35 N35          1.8678     1.8977     3.1879 N.2          1    LIG   0.0000
  36 H            2.2908     2.4207     9.1760 H            1    LIG   0.0000
  37 H            1.0096     2.2965     8.1711 H            1    LIG   0.0000
  38 H            2.1476     1.1255     8.1919 H            1    LIG   0.0000
  39 H            1.3834     2.6176     5.7942 H            1    LIG   0.0000
  40 H            2.5213     1.4466     5.8150 H            1    LIG   0.0000
  41 H            3.0188     4.1942     5.0799 H            1    LIG   0.0000
  42 H            4.1567     3.0232     5.1006 H            1    LIG   0.0000
  43 H            1.4802     0.7954     0.1471 H            1    LIG   0.0000
  44 H            0.7954     0.1471     1.4802 H            1    LIG   0.0000
  45 H           -1.2759     0.6758     2.1257 H            1    LIG   0.0000
  46 H           -1.7999     2.2090     1.9229 H            1    LIG   0.0000
  47 H           -2.1808     1.0638     0.8230 H            1    LIG   0.0000
  48 H            0.2314     6.3836    -2.9476 H            1    LIG   0.0000
  49 H            1.3083     7.2491    -4.9061 H            1    LIG   0.0000
  50 H            2.1819     6.9593    -8.4874 H            1    LIG   0.0000
  51 H            1.0723     5.8943    -7.9386 H            1    LIG   0.0000
  52 H            1.2627     7.3333    -7.1905 H            1    LIG   0.0000
  53 H            4.2328     7.4078    -7.1631 H            1    LIG   0.0000
  54 H            3.3136     7.7818    -5.8662 H            1    LIG   0.0000
  55 H            4.4724     6.6379    -5.7431 H            1    LIG   0.0000
  56 H            3.9433     5.2205    -8.3002 H            1    LIG   0.0000
  57 H            4.1830     4.4506    -6.8802 H            1    LIG   0.0000
  58 H            2.8337     4.1555    -7.7515 H            1    LIG   0.0000
  59 H            2.7242     3.4622    -5.8103 H            1    LIG   0.0000
  60 H            1.6506     2.5883    -3.8541 H            1    LIG   0.0000
  61 H            2.3242     1.9199    -0.7233 H            1    LIG   0.0000
  62 H            2.3566     2.4225    -2.2767 H            1    LIG   0.0000
  63 H           -0.3872    -3.4285    -3.3552 H            1    LIG   0.0000
  64 H           -1.4353    -2.7689    -2.2907 H            1    LIG   0.0000
  65 H           -1.4188    -2.2601    -3.8423 H            1    LIG   0.0000
  66 H            3.8880     0.5951    -1.9794 H            1    LIG   0.0000
  67 H            4.0093    -0.9956    -1.6306 H            1    LIG   0.0000
  68 H            4.0419    -0.4957    -3.1849 H            1    LIG   0.0000
@<TRIPOS>BOND
   1        1        2 1
   2        2        3 1
   3        3        4 1
   4        4        5 1
   5        5        6 2
   6        6        7 1
   7        7        8 1
   8        8        9 1
   9        9       10 1
  10       10       11 1
  11       10       12 1
  12       12       13 2
  13       13       14 1
  14       14       15 2
  15       15       16 1
  16       16       17 ar
  17       17       18 ar
  18       18       19 ar
  19       19       20 1
  20       20       21 1
  21       20       22 1
  22       20       23 1
  23       19       24 ar
  24       24       25 ar
  25       25       16 ar
  26       15       26 1
  27       26       12 1
  28       26       27 1
  29       27       28 1
  30       28       29 1
  31       29       30 1
  32       30       31 1
  33       30       32 2
  34       32       33 1
  35       33       28 2
  36       33       34 1
  37        8       35 2
  38       35        5 1
  39        1       36 1
  40        1       37 1
  41        1       38 1
  42        3       39 1
  43        3       40 1
  44        4       41 1
  45        4       42 1
  46        9       43 1
  47        9       44 1
  48       11       45 1
  49       11       46 1
  50       11       47 1
  51       17       48 1
  52       18       49 1
  53       21       50 1
  54       21       51 1
  55       21       52 1
  56       22       53 1
  57       22       54 1
  58       22       55 1
  59       23       56 1
  60       23       57 1
  61       23       58 1
  62       24       59 1
  63       25       60 1
  64       27       61 1
  65       27       62 1
  66       31       63 1
  67       31       64 1
  68       31       65 1
  69       34       66 1
  70       34       67 1
  71       34       68 1

@<TRIPOS>MOLECULE

  68   71
SMALL
USER_CHARGES
@<TRIPOS>ATOM
   1 C1           1.9862     2.1088     8.2760 C.3          1    LIG   0.0000
   2 O2           2.7113     2.7955     7.2666 O.3          1    LIG   0.0000
   3 C3           2.3530     2.4238     5.9438 C.3          1    LIG   0.0000
   4 C4           3.1872     3.2169     4.9511 C.3          1    LIG   0.0000
   5 C5           2.8037     2.8192     3.5357 C.2          1    LIG   0.0000
   6 N6           3.3203     3.3017     2.4340 N.2          1    LIG   0.0000
   7 O7           2.7648     2.7409     1.4446 O.2          1    LIG   0.0000
   8 C8           1.8781     1.8781     1.8781 C.2          1    LIG   0.0000
   9 C9           1.0000     1.0000     1.0000 C.3          1    LIG   0.0000
  10 N10         -0.2538     1.7059     0.6992 N.pl3        1    LIG   0.0000
  11 C11         -1.4752     1.3882     1.4530 C.3          1    LIG   0.0000
  12 C12         -0.2847     2.6803    -0.3046 C.2          1    LIG   0.0000
  13 N13         -0.0562     3.9634    -0.1557 N.2          1    LIG   0.0000
  14 N14         -0.1876     4.5648    -1.3247 N.2          1    LIG   0.0000
  15 C15         -0.4825     3.6878    -2.2483 C.2          1    LIG   0.0000
  16 C16         -0.6974     3.9556    -3.6568 C.ar         1    LIG   0.0000
  17 C17         -0.5918     5.2598    -4.1288 C.ar         1    LIG   0.0000
  18 C18         -0.7992     5.5119    -5.4810 C.ar         1    LIG   0.0000
  19 C19         -1.1092     4.4660    -6.3436 C.ar         1    LIG   0.0000
  20 C20         -1.3345     4.7503    -7.8190 C.3          1    LIG   0.0000
  21 C21         -2.4949     5.7193    -7.9769 C.3          1    LIG   0.0000
  22 C22         -0.0777     5.3637    -8.4145 C.3          1    LIG   0.0000
  23 C23         -1.6562     3.4524    -8.5417 C.3          1    LIG   0.0000
  24 C24         -1.2118     3.1641    -5.8632 C.ar         1    LIG   0.0000
  25 C25         -1.0061     2.9031    -4.5128 C.ar         1    LIG   0.0000
  26 N26         -0.5567     2.4827    -1.6243 N.pl3        1    LIG   0.0000
  27 C27         -0.8647     1.1970    -2.2640 C.3          1    LIG   0.0000
  28 C28          0.2953     0.7850    -3.1596 C.2          1    LIG   0.0000
  29 S29          1.7318     1.6414    -3.4424 S.3          1    LIG   0.0000
  30 C30          2.4299     0.5209    -4.5165 C.2          1    LIG   0.0000
  31 C31          3.7984     0.7095    -5.1560 C.3          1    LIG   0.0000
  32 N32          1.5792    -0.4731    -4.6577 N.2          1    LIG   0.0000
  33 C33          0.4180    -0.3369    -3.9325 C.2          1    LIG   0.0000
  34 C34         -0.7101    -1.3510    -3.9515 C.3          1    LIG   0.0000
  35 N35          1.8678     1.8977     3.1879 N.2          1    LIG   0.0000
  36 H            2.2908     2.4207     9.1760 H            1    LIG   0.0000
  37 H            1.0096     2.2965     8.1711 H            1    LIG   0.0000
  38 H            2.1476     1.1255     8.1919 H            1    LIG   0.0000
  39 H            1.3834     2.6176     5.7942 H            1    LIG   0.0000
  40 H            2.5213     1.4466     5.8150 H            1    LIG   0.0000
  41 H            3.0188     4.1942     5.0799 H            1    LIG   0.0000
  42 H            4.1567     3.0232     5.1006 H            1    LIG   0.0000
  43 H            1.4802     0.7954     0.1471 H            1    LIG   0.0000
  44 H            0.7954     0.1471     1.4802 H            1    LIG   0.0000
  45 H           -1.2759     0.6758     2.1257 H            1    LIG   0.0000
  46 H           -1.7999     2.2090     1.9229 H            1    LIG   0.0000
  47 H           -2.1808     1.0638     0.8230 H            1    LIG   0.0000
  48 H           -0.3693     6.0076    -3.5033 H            1    LIG   0.0000
  49 H           -0.7254     6.4451    -5.8328 H            1    LIG   0.0000
  50 H           -2.6432     5.9064    -8.9480 H            1    LIG   0.0000
  51 H           -3.3218     5.3157    -7.5851 H            1    LIG   0.0000
  52 H           -2.2832     6.5731    -7.5014 H            1    LIG   0.0000
  53 H           -0.2259     5.5508    -9.3856 H            1    LIG   0.0000
  54 H            0.1340     6.2176    -7.9390 H            1    LIG   0.0000
  55 H            0.6858     4.7262    -8.3106 H            1    LIG   0.0000
  56 H           -1.8045     3.6395    -9.5128 H            1    LIG   0.0000
  57 H           -0.8928     2.8149    -8.4378 H            1    LIG   0.0000
  58 H           -2.4831     3.0489    -8.1499 H            1    LIG   0.0000
  59 H           -1.4335     2.4163    -6.4889 H            1    LIG   0.0000
  60 H           -1.0792     1.9699    -4.1612 H            1    LIG   0.0000
  61 H           -1.6945     1.2889    -2.8145 H            1    LIG   0.0000
  62 H           -1.0067     0.5003    -1.5608 H            1    LIG   0.0000
  63 H            4.0005    -0.0711    -5.7474 H            1    LIG   0.0000
  64 H            3.7995     1.5488    -5.6998 H            1    LIG   0.0000
  65 H            4.4944     0.7749    -4.4409 H            1    LIG   0.0000
  66 H           -1.4468    -1.0413    -3.3504 H            1    LIG   0.0000
  67 H           -1.0581    -1.4450    -4.8843 H            1    LIG   0.0000
  68 H           -0.3689    -2.2352    -3.6324 H            1    LIG   0.0000
@<TRIPOS>BOND
   1        1        2 1
   2        2        3 1
   3        3        4 1
   4        4        5 1
   5        5        6 2
   6        6        7 1
   7        7        8 1
   8        8        9 1
   9        9       10 1
  10       10       11 1
  11       10       12 1
  12       12       13 2
  13       13       14 1
  14       14       15 2
  15       15       16 1
  16       16       17 ar
  17       17       18 ar
  18       18       19 ar
  19       19       20 1
  20       20       21 1
  21       20       22 1
  22       20       23 1
  23       19       24 ar
  24       24       25 ar
  25       25       16 ar
  26       15       26 1
  27       26       12 1
  28       26       27 1
  29       27       28 1
  30       28       29 1
  31       29       30 1
  32       30       31 1
  33       30       32 2
  34       32       33 1
  35       33       28 2
  36       33       34 1
  37        8       35 2
  38       35        5 1
  39        1       36 1
  40        1       37 1
  41        1       38 1
  42        3       39 1
  43        3       40 1
  44        4       41 1
  45        4       42 1
  46        9       43 1
  47        9       44 1
  48       11       45 1
  49       11       46 1
  50       11       47 1
  51       17       48 1
  52       18       49 1
  53       21       50 1
  54       21       51 1
  55       21       52 1
  56       22       53 1
  57       22       54 1
  58       22       55 1
  59       23       56 1
  60       23       57 1
  61       23       58 1
  62       24       59 1
  63       25       60 1
  64       27       61 1
  65       27       62 1
  66       31       63 1
  67       31       64 1
  68       31       65 1
  69       34       66 1
  70       34       67 1
  71       34       68 1

@<TRIPOS>MOLECULE

  68   71
SMALL
USER_CHARGES
@<TRIPOS>ATOM
   1 C1           1.9862     2.1088     8.2760 C.3          1    LIG   0.0000
   2 O2           2.7113     2.7955     7.2666 O.3          1    LIG   0.0000
   3 C3           2.3530     2.4238     5.9438 C.3          1    LIG   0.0000
   4 C4           3.1872     3.2169     4.9511 C.3          1    LIG   0.0000
   5 C5           2.8037     2.8192     3.5357 C.2          1    LIG   0.0000
   6 N6           3.3203     3.3017     2.4340 N.2          1    LIG   0.0000
   7 O7           2.7648     2.7409     1.4446 O.2          1    LIG   0.0000
   8 C8           1.8781     1.8781     1.8781 C.2          1    LIG   0.0000
   9 C9           1.0000     1.0000     1.0000 C.3          1    LIG   0.0000
  10 N10         -0.2538     1.7059     0.6992 N.pl3        1    LIG   0.0000
  11 C11         -1.4752     1.3882     1.4530 C.3          1    LIG   0.0000
  12 C12         -0.2847     2.6803    -0.3046 C.2          1    LIG   0.0000
  13 N13         -0.0562     3.9634    -0.1557 N.2          1    LIG   0.0000
  14 N14         -0.1876     4.5648    -1.3247 N.2          1    LIG   0.0000
  15 C15         -0.4825     3.6878    -2.2483 C.2          1    LIG   0.0000
  16 C16         -0.6974     3.9556    -3.6568 C.ar         1    LIG   0.0000
  17 C17         -0.5918     5.2598    -4.1288 C.ar         1    LIG   0.0000
  18 C18         -0.7992     5.5119    -5.4810 C.ar         1    LIG   0.0000
  19 C19         -1.1092     4.4660    -6.3436 C.ar         1    LIG   0.0000
  20 C20         -1.3345     4.7503    -7.8190 C.3          1    LIG   0.0000
  21 C21         -2.4949     5.7193    -7.9769 C.3          1    LIG   0.0000
  22 C22         -0.0777     5.3637    -8.4145 C.3          1    LIG   0.0000
  23 C23         -1.6562     3.4524    -8.5417 C.3          1    LIG   0.0000
  24 C24         -1.2118     3.1641    -5.8632 C.ar         1    LIG   0.0000
  25 C25         -1.0061     2.9031    -4.5128 C.ar         1    LIG   0.0000
  26 N26         -0.5567     2.4827    -1.6243 N.pl3        1    LIG   0.0000
  27 C27         -0.8647     1.1970    -2.2640 C.3          1    LIG   0.0000
  28 C28         -2.3300     1.1736    -2.6766 C.2          1    LIG   0.0000
  29 S29         -3.4857     2.3921    -2.4391 S.3          1    LIG   0.0000
  30 C30         -4.7934     1.5773    -3.1619 C.2          1    LIG   0.0000
  31 C31         -6.1902     2.1705    -3.2832 C.3          1    LIG   0.0000
  32 N32         -4.3540     0.4035    -3.5629 N.2          1    LIG   0.0000
  33 C33         -3.0236     0.1725    -3.2993 C.2          1    LIG   0.0000
  34 C34         -2.3057    -1.1149    -3.6578 C.3          1    LIG   0.0000
  35 N35          1.8678     1.8977     3.1879 N.2          1    LIG   0.0000
  36 H            2.2908     2.4207     9.1760 H            1    LIG   0.0000
  37 H            1.0096     2.2965     8.1711 H            1    LIG   0.0000
  38 H            2.1476     1.1255     8.1919 H            1    LIG   0.0000
  39 H            1.3834     2.6176     5.7942 H            1    LIG   0.0000
  40 H            2.5213     1.4466     5.8150 H            1    LIG   0.0000
  41 H            3.0188     4.1942     5.0799 H            1    LIG   0.0000
  42 H            4.1567     3.0232     5.1006 H            1    LIG   0.0000
  43 H            1.4802     0.7954     0.1471 H            1    LIG   0.0000
  44 H            0.7954     0.1471     1.4802 H            1    LIG   0.0000
  45 H           -1.2759     0.6758     2.1257 H            1    LIG   0.0000
  46 H           -1.7999     2.2090     1.9229 H            1    LIG   0.0000
  47 H           -2.1808     1.0638     0.8230 H            1    LIG   0.0000
  48 H           -0.3693     6.0076    -3.5033 H            1    LIG   0.0000
  49 H           -0.7254     6.4451    -5.8328 H            1    LIG   0.0000
  50 H           -2.6432     5.9064    -8.9480 H            1    LIG   0.0000
  51 H           -3.3218     5.3157    -7.5851 H            1    LIG   0.0000
  52 H           -2.2832     6.5731    -7.5014 H            1    LIG   0.0000
  53 H           -0.2259     5.5508    -9.3856 H            1    LIG   0.0000
  54 H            0.1340     6.2176    -7.9390 H            1    LIG   0.0000
  55 H            0.6858     4.7262    -8.3106 H            1    LIG   0.0000
  56 H           -1.8045     3.6395    -9.5128 H            1    LIG   0.0000
  57 H           -0.8928     2.8149    -8.4378 H            1    LIG   0.0000
  58 H           -2.4831     3.0489    -8.1499 H            1    LIG   0.0000
  59 H           -1.4335     2.4163    -6.4889 H            1    LIG   0.0000
  60 H           -1.0792     1.9699    -4.1612 H            1    LIG   0.0000
  61 H           -0.6880     0.4532    -1.6194 H            1    LIG   0.0000
  62 H           -0.2887     1.0808    -3.0731 H            1    LIG   0.0000
  63 H           -6.7920     1.5156    -3.7402 H            1    LIG   0.0000
  64 H           -6.5474     2.3712    -2.3710 H            1    LIG   0.0000
  65 H           -6.1486     3.0145    -3.8180 H            1    LIG   0.0000
  66 H           -1.3496    -1.0544    -3.3709 H            1    LIG   0.0000
  67 H           -2.7456    -1.8827    -3.1920 H            1    LIG   0.0000
  68 H           -2.3486    -1.2562    -4.6469 H            1    LIG   0.0000
@<TRIPOS>BOND
   1        1        2 1
   2        2        3 1
   3        3        4 1
   4        4        5 1
   5        5        6 2
   6        6        7 1
   7        7        8 1
   8        8        9 1
   9        9       10 1
  10       10       11 1
  11       10       12 1
  12       12       13 2
  13       13       14 1
  14       14       15 2
  15       15       16 1
  16       16       17 ar
  17       17       18 ar
  18       18       19 ar
  19       19       20 1
  20       20       21 1
  21       20       22 1
  22       20       23 1
  23       19       24 ar
  24       24       25 ar
  25       25       16 ar
  26       15       26 1
  27       26       12 1
  28       26       27 1
  29       27       28 1
  30       28       29 1
  31       29       30 1
  32       30       31 1
  33       30       32 2
  34       32       33 1
  35       33       28 2
  36       33       34 1
  37        8       35 2
  38       35        5 1
  39        1       36 1
  40        1       37 1
  41        1       38 1
  42        3       39 1
  43        3       40 1
  44        4       41 1
  45        4       42 1
  46        9       43 1
  47        9       44 1
  48       11       45 1
  49       11       46 1
  50       11       47 1
  51       17       48 1
  52       18       49 1
  53       21       50 1
  54       21       51 1
  55       21       52 1
  56       22       53 1
  57       22       54 1
  58       22       55 1
  59       23       56 1
  60       23       57 1
  61       23       58 1
  62       24       59 1
  63       25       60 1
  64       27       61 1
  65       27       62 1
  66       31       63 1
  67       31       64 1
  68       31       65 1
  69       34       66 1
  70       34       67 1
  71       34       68 1

@<TRIPOS>MOLECULE

  68   71
SMALL
USER_CHARGES
@<TRIPOS>ATOM
   1 C1           1.9862     2.1088     8.2760 C.3          1    LIG   0.0000
   2 O2           2.7113     2.7955     7.2666 O.3          1    LIG   0.0000
   3 C3           2.3530     2.4238     5.9438 C.3          1    LIG   0.0000
   4 C4           3.1872     3.2169     4.9511 C.3          1    LIG   0.0000
   5 C5           2.8037     2.8192     3.5357 C.2          1    LIG   0.0000
   6 N6           3.3203     3.3017     2.4340 N.2          1    LIG   0.0000
   7 O7           2.7648     2.7409     1.4446 O.2          1    LIG   0.0000
   8 C8           1.8781     1.8781     1.8781 C.2          1    LIG   0.0000
   9 C9           1.0000     1.0000     1.0000 C.3          1    LIG   0.0000
  10 N10         -0.2538     1.7059     0.6992 N.pl3        1    LIG   0.0000
  11 C11         -1.4752     1.3882     1.4530 C.3          1    LIG   0.0000
  12 C12         -0.2847     2.6803    -0.3046 C.2          1    LIG   0.0000
  13 N13         -0.5477     2.4857    -1.5750 N.2          1    LIG   0.0000
  14 N14         -0.4719     3.6394    -2.2141 N.2          1    LIG   0.0000
  15 C15         -0.1795     4.5978    -1.3743 C.2          1    LIG   0.0000
  16 C16         -0.0176     6.0035    -1.6899 C.ar         1    LIG   0.0000
  17 C17         -0.1782     6.4324    -3.0033 C.ar         1    LIG   0.0000
  18 C18         -0.0215     7.7821    -3.3013 C.ar         1    LIG   0.0000
  19 C19          0.2930     8.6850    -2.2915 C.ar         1    LIG   0.0000
  20 C20          0.4626    10.1574    -2.6258 C.3          1    LIG   0.0000
  21 C21          1.5872    10.3215    -3.6352 C.3          1    LIG   0.0000
  22 C22         -0.8307    10.6951    -3.2162 C.3          1    LIG   0.0000
  23 C23          0.8011    10.9285    -1.3604 C.3          1    LIG   0.0000
  24 C24          0.4507     8.2476    -0.9800 C.ar         1    LIG   0.0000
  25 C25          0.2960     6.9000    -0.6732 C.ar         1    LIG   0.0000
  26 N26         -0.0486     4.0131    -0.1545 N.pl3        1    LIG   0.0000
  27 C27          0.2783     4.7005     1.1016 C.3          1    LIG   0.0000
  28 C28         -0.8963     5.5721     1.5238 C.2          1    LIG   0.0000
  29 S29         -2.3667     5.7846     0.7053 S.3          1    LIG   0.0000
  30 C30         -3.0636     6.8702     1.8155 C.2          1    LIG   0.0000
  31 C31         -4.4569     7.4613     1.6516 C.3          1    LIG   0.0000
  32 N32         -2.1877     7.0674     2.7775 N.2          1    LIG   0.0000
  33 C33         -1.0089     6.3744     2.6259 C.2          1    LIG   0.0000
  34 C34          0.1487     6.4588     3.6028 C.3          1    LIG   0.0000
  35 N35          1.8678     1.8977     3.1879 N.2          1    LIG   0.0000
  36 H            2.2908     2.4207     9.1760 H            1    LIG   0.0000
  37 H            1.0096     2.2965     8.1711 H            1    LIG   0.0000
  38 H            2.1476     1.1255     8.1919 H            1    LIG   0.0000
  39 H            1.3834     2.6176     5.7942 H            1    LIG   0.0000
  40 H            2.5213     1.4466     5.8150 H            1    LIG   0.0000
  41 H            3.0188     4.1942     5.0799 H            1    LIG   0.0000
  42 H            4.1567     3.0232     5.1006 H            1    LIG   0.0000
  43 H            1.4802     0.7954     0.1471 H            1    LIG   0.0000
  44 H            0.7954     0.1471     1.4802 H            1    LIG   0.0000
  45 H           -1.2759     0.6758     2.1257 H            1    LIG   0.0000
  46 H           -1.7999     2.2090     1.9229 H            1    LIG   0.0000
  47 H           -2.1808     1.0638     0.8230 H            1    LIG   0.0000
  48 H           -0.4036     5.7780    -3.7251 H            1    LIG   0.0000
  49 H           -0.1351     8.1030    -4.2416 H            1    LIG   0.0000
  50 H            1.6988    11.2906    -3.8552 H            1    LIG   0.0000
  51 H            2.4380     9.9677    -3.2467 H            1    LIG   0.0000
  52 H            1.3645     9.8141    -4.4677 H            1    LIG   0.0000
  53 H           -0.7190    11.6642    -3.4362 H            1    LIG   0.0000
  54 H           -1.0533    10.1878    -4.0487 H            1    LIG   0.0000
  55 H           -1.5705    10.5872    -2.5521 H            1    LIG   0.0000
  56 H            0.9127    11.8976    -1.5804 H            1    LIG   0.0000
  57 H            0.0612    10.8206    -0.6963 H            1    LIG   0.0000
  58 H            1.6519    10.5747    -0.9719 H            1    LIG   0.0000
  59 H            0.6754     8.9021    -0.2581 H            1    LIG   0.0000
  60 H            0.4088     6.5792     0.2672 H            1    LIG   0.0000
  61 H            1.0871     5.2732     0.9675 H            1    LIG   0.0000
  62 H            0.4638     4.0234     1.8137 H            1    LIG   0.0000
  63 H           -4.6535     8.0696     2.4206 H            1    LIG   0.0000
  64 H           -4.5009     7.9792     0.7973 H            1    LIG   0.0000
  65 H           -5.1315     6.7235     1.6293 H            1    LIG   0.0000
  66 H            0.8942     5.8715     3.2877 H            1    LIG   0.0000
  67 H            0.4698     7.4042     3.6584 H            1    LIG   0.0000
  68 H           -0.1549     6.1562     4.5063 H            1    LIG   0.0000
@<TRIPOS>BOND
   1        1        2 1
   2        2        3 1
   3        3        4 1
   4        4        5 1
   5        5        6 2
   6        6        7 1
   7        7        8 1
   8        8        9 1
   9        9       10 1
  10       10       11 1
  11       10       12 1
  12       12       13 2
  13       13       14 1
  14       14       15 2
  15       15       16 1
  16       16       17 ar
  17       17       18 ar
  18       18       19 ar
  19       19       20 1
  20       20       21 1
  21       20       22 1
  22       20       23 1
  23       19       24 ar
  24       24       25 ar
  25       25       16 ar
  26       15       26 1
  27       26       12 1
  28       26       27 1
  29       27       28 1
  30       28       29 1
  31       29       30 1
  32       30       31 1
  33       30       32 2
  34       32       33 1
  35       33       28 2
  36       33       34 1
  37        8       35 2
  38       35        5 1
  39        1       36 1
  40        1       37 1
  41        1       38 1
  42        3       39 1
  43        3       40 1
  44        4       41 1
  45        4       42 1
  46        9       43 1
  47        9       44 1
  48       11       45 1
  49       11       46 1
  50       11       47 1
  51       17       48 1
  52       18       49 1
  53       21       50 1
  54       21       51 1
  55       21       52 1
  56       22       53 1
  57       22       54 1
  58       22       55 1
  59       23       56 1
  60       23       57 1
  61       23       58 1
  62       24       59 1
  63       25       60 1
  64       27       61 1
  65       27       62 1
  66       31       63 1
  67       31       64 1
  68       31       65 1
  69       34       66 1
  70       34       67 1
  71       34       68 1

@<TRIPOS>MOLECULE

  68   71
SMALL
USER_CHARGES
@<TRIPOS>ATOM
   1 C1           1.9862     2.1088     8.2760 C.3          1    LIG   0.0000
   2 O2           2.7113     2.7955     7.2666 O.3          1    LIG   0.0000
   3 C3           2.3530     2.4238     5.9438 C.3          1    LIG   0.0000
   4 C4           3.1872     3.2169     4.9511 C.3          1    LIG   0.0000
   5 C5           2.8037     2.8192     3.5357 C.2          1    LIG   0.0000
   6 N6           3.3203     3.3017     2.4340 N.2          1    LIG   0.0000
   7 O7           2.7648     2.7409     1.4446 O.2          1    LIG   0.0000
   8 C8           1.8781     1.8781     1.8781 C.2          1    LIG   0.0000
   9 C9           1.0000     1.0000     1.0000 C.3          1    LIG   0.0000
  10 N10         -0.2538     1.7059     0.6992 N.pl3        1    LIG   0.0000
  11 C11         -1.4752     1.3882     1.4530 C.3          1    LIG   0.0000
  12 C12         -0.2847     2.6803    -0.3046 C.2          1    LIG   0.0000
  13 N13         -0.5477     2.4857    -1.5750 N.2          1    LIG   0.0000
  14 N14         -0.4719     3.6394    -2.2141 N.2          1    LIG   0.0000
  15 C15         -0.1795     4.5978    -1.3743 C.2          1    LIG   0.0000
  16 C16         -0.0176     6.0035    -1.6899 C.ar         1    LIG   0.0000
  17 C17         -0.1782     6.4324    -3.0033 C.ar         1    LIG   0.0000
  18 C18         -0.0215     7.7821    -3.3013 C.ar         1    LIG   0.0000
  19 C19          0.2930     8.6850    -2.2915 C.ar         1    LIG   0.0000
  20 C20          0.4626    10.1574    -2.6258 C.3          1    LIG   0.0000
  21 C21          1.5872    10.3215    -3.6352 C.3          1    LIG   0.0000
  22 C22         -0.8307    10.6951    -3.2162 C.3          1    LIG   0.0000
  23 C23          0.8011    10.9285    -1.3604 C.3          1    LIG   0.0000
  24 C24          0.4507     8.2476    -0.9800 C.ar         1    LIG   0.0000
  25 C25          0.2960     6.9000    -0.6732 C.ar         1    LIG   0.0000
  26 N26         -0.0486     4.0131    -0.1545 N.pl3        1    LIG   0.0000
  27 C27          0.2783     4.7005     1.1016 C.3          1    LIG   0.0000
  28 C28          1.7298     5.1585     1.0666 C.2          1    LIG   0.0000
  29 S29          2.8544     4.9199    -0.1805 S.3          1    LIG   0.0000
  30 C30          4.1631     5.7068     0.5711 C.2          1    LIG   0.0000
  31 C31          5.5364     5.8529    -0.0694 C.3          1    LIG   0.0000
  32 N32          3.7475     6.1294     1.7460 N.2          1    LIG   0.0000
  33 C33          2.4338     5.8322     2.0265 C.2          1    LIG   0.0000
  34 C34          1.7448     6.2072     3.3250 C.3          1    LIG   0.0000
  35 N35          1.8678     1.8977     3.1879 N.2          1    LIG   0.0000
  36 H            2.2908     2.4207     9.1760 H            1    LIG   0.0000
  37 H            1.0096     2.2965     8.1711 H            1    LIG   0.0000
  38 H            2.1476     1.1255     8.1919 H            1    LIG   0.0000
  39 H            1.3834     2.6176     5.7942 H            1    LIG   0.0000
  40 H            2.5213     1.4466     5.8150 H            1    LIG   0.0000
  41 H            3.0188     4.1942     5.0799 H            1    LIG   0.0000
  42 H            4.1567     3.0232     5.1006 H            1    LIG   0.0000
  43 H            1.4802     0.7954     0.1471 H            1    LIG   0.0000
  44 H            0.7954     0.1471     1.4802 H            1    LIG   0.0000
  45 H           -1.2759     0.6758     2.1257 H            1    LIG   0.0000
  46 H           -1.7999     2.2090     1.9229 H            1    LIG   0.0000
  47 H           -2.1808     1.0638     0.8230 H            1    LIG   0.0000
  48 H           -0.4036     5.7780    -3.7251 H            1    LIG   0.0000
  49 H           -0.1351     8.1030    -4.2416 H            1    LIG   0.0000
  50 H            1.6988    11.2906    -3.8552 H            1    LIG   0.0000
  51 H            2.4380     9.9677    -3.2467 H            1    LIG   0.0000
  52 H            1.3645     9.8141    -4.4677 H            1    LIG   0.0000
  53 H           -0.7190    11.6642    -3.4362 H            1    LIG   0.0000
  54 H           -1.0533    10.1878    -4.0487 H            1    LIG   0.0000
  55 H           -1.5705    10.5872    -2.5521 H            1    LIG   0.0000
  56 H            0.9127    11.8976    -1.5804 H            1    LIG   0.0000
  57 H            0.0612    10.8206    -0.6963 H            1    LIG   0.0000
  58 H            1.6519    10.5747    -0.9719 H            1    LIG   0.0000
  59 H            0.6754     8.9021    -0.2581 H            1    LIG   0.0000
  60 H            0.4088     6.5792     0.2672 H            1    LIG   0.0000
  61 H            0.1450     4.0736     1.8692 H            1    LIG   0.0000
  62 H           -0.3192     5.4947     1.2123 H            1    LIG   0.0000
  63 H            6.1433     6.3478     0.5525 H            1    LIG   0.0000
  64 H            5.9160     4.9465    -0.2545 H            1    LIG   0.0000
  65 H            5.4520     6.3605    -0.9269 H            1    LIG   0.0000
  66 H            0.7969     5.8894     3.3032 H            1    LIG   0.0000
  67 H            2.2226     5.7786     4.0918 H            1    LIG   0.0000
  68 H            1.7607     7.2009     3.4358 H            1    LIG   0.0000
@<TRIPOS>BOND
   1        1        2 1
   2        2        3 1
   3        3        4 1
   4        4        5 1
   5        5        6 2
   6        6        7 1
   7        7        8 1
   8        8        9 1
   9        9       10 1
  10       10       11 1
  11       10       12 1
  12       12       13 2
  13       13       14 1
  14       14       15 2
  15       15       16 1
  16       16       17 ar
  17       17       18 ar
  18       18       19 ar
  19       19       20 1
  20       20       21 1
  21       20       22 1
  22       20       23 1
  23       19       24 ar
  24       24       25 ar
  25       25       16 ar
  26       15       26 1
  27       26       12 1
  28       26       27 1
  29       27       28 1
  30       28       29 1
  31       29       30 1
  32       30       31 1
  33       30       32 2
  34       32       33 1
  35       33       28 2
  36       33       34 1
  37        8       35 2
  38       35        5 1
  39        1       36 1
  40        1       37 1
  41        1       38 1
  42        3       39 1
  43        3       40 1
  44        4       41 1
  45        4       42 1
  46        9       43 1
  47        9       44 1
  48       11       45 1
  49       11       46 1
  50       11       47 1
  51       17       48 1
  52       18       49 1
  53       21       50 1
  54       21       51 1
  55       21       52 1
  56       22       53 1
  57       22       54 1
  58       22       55 1
  59       23       56 1
  60       23       57 1
  61       23       58 1
  62       24       59 1
  63       25       60 1
  64       27       61 1
  65       27       62 1
  66       31       63 1
  67       31       64 1
  68       31       65 1
  69       34       66 1
  70       34       67 1
  71       34       68 1

@<TRIPOS>MOLECULE

  68   71
SMALL
USER_CHARGES
@<TRIPOS>ATOM
   1 C1           1.9862     2.1088     8.2760 C.3          1    LIG   0.0000
   2 O2           2.7113     2.7955     7.2666 O.3          1    LIG   0.0000
   3 C3           2.3530     2.4238     5.9438 C.3          1    LIG   0.0000
   4 C4           3.1872     3.2169     4.9511 C.3          1    LIG   0.0000
   5 C5           2.8037     2.8192     3.5357 C.2          1    LIG   0.0000
   6 N6           3.3203     3.3017     2.4340 N.2          1    LIG   0.0000
   7 O7           2.7648     2.7409     1.4446 O.2          1    LIG   0.0000
   8 C8           1.8781     1.8781     1.8781 C.2          1    LIG   0.0000
   9 C9           1.0000     1.0000     1.0000 C.3          1    LIG   0.0000
  10 N10         -0.2538     1.7059     0.6992 N.pl3        1    LIG   0.0000
  11 C11         -1.4752     1.3882     1.4530 C.3          1    LIG   0.0000
  12 C12         -0.2847     2.6803    -0.3046 C.2          1    LIG   0.0000
  13 N13          0.7223     3.0639    -1.0527 N.2          1    LIG   0.0000
  14 N14          0.3118     4.0100    -1.8786 N.2          1    LIG   0.0000
  15 C15         -0.9617     4.2418    -1.6958 C.2          1    LIG   0.0000
  16 C16         -1.7769     5.2017    -2.4141 C.ar         1    LIG   0.0000
  17 C17         -1.1975     5.9821    -3.4091 C.ar         1    LIG   0.0000
  18 C18         -1.9836     6.9019    -4.0954 C.ar         1    LIG   0.0000
  19 C19         -3.3322     7.0338    -3.7828 C.ar         1    LIG   0.0000
  20 C20         -4.1835     8.0412    -4.5371 C.3          1    LIG   0.0000
  21 C21         -3.6163     9.4367    -4.3340 C.3          1    LIG   0.0000
  22 C22         -4.1764     7.7020    -6.0187 C.3          1    LIG   0.0000
  23 C23         -5.6095     7.9927    -4.0130 C.3          1    LIG   0.0000
  24 C24         -3.9041     6.2483    -2.7867 C.ar         1    LIG   0.0000
  25 C25         -3.1256     5.3263    -2.0956 C.ar         1    LIG   0.0000
  26 N26         -1.3634     3.4140    -0.6956 N.pl3        1    LIG   0.0000
  27 C27         -2.7217     3.3216    -0.1446 C.3          1    LIG   0.0000
  28 C28         -3.6482     2.6995    -1.1800 C.2          1    LIG   0.0000
  29 S29         -3.2476     2.1972    -2.7498 S.3          1    LIG   0.0000
  30 C30         -4.7989     1.6553    -3.1932 C.2          1    LIG   0.0000
  31 C31         -5.1212     1.0493    -4.5520 C.3          1    LIG   0.0000
  32 N32         -5.5976     1.8640    -2.1685 N.2          1    LIG   0.0000
  33 C33         -4.9861     2.4346    -1.0761 C.2          1    LIG   0.0000
  34 C34         -5.7121     2.7786     0.2108 C.3          1    LIG   0.0000
  35 N35          1.8678     1.8977     3.1879 N.2          1    LIG   0.0000
  36 H            2.2908     2.4207     9.1760 H            1    LIG   0.0000
  37 H            1.0096     2.2965     8.1711 H            1    LIG   0.0000
  38 H            2.1476     1.1255     8.1919 H            1    LIG   0.0000
  39 H            1.3834     2.6176     5.7942 H            1    LIG   0.0000
  40 H            2.5213     1.4466     5.8150 H            1    LIG   0.0000
  41 H            3.0188     4.1942     5.0799 H            1    LIG   0.0000
  42 H            4.1567     3.0232     5.1006 H            1    LIG   0.0000
  43 H            1.4802     0.7954     0.1471 H            1    LIG   0.0000
  44 H            0.7954     0.1471     1.4802 H            1    LIG   0.0000
  45 H           -1.2759     0.6758     2.1257 H            1    LIG   0.0000
  46 H           -1.7999     2.2090     1.9229 H            1    LIG   0.0000
  47 H           -2.1808     1.0638     0.8230 H            1    LIG   0.0000
  48 H           -0.2269     5.8830    -3.6286 H            1    LIG   0.0000
  49 H           -1.5789     7.4682    -4.8133 H            1    LIG   0.0000
  50 H           -4.1766    10.0997    -4.8304 H            1    LIG   0.0000
  51 H           -3.6210     9.6598    -3.3592 H            1    LIG   0.0000
  52 H           -2.6781     9.4686    -4.6788 H            1    LIG   0.0000
  53 H           -4.7367     8.3650    -6.5152 H            1    LIG   0.0000
  54 H           -3.2382     7.7339    -6.3635 H            1    LIG   0.0000
  55 H           -4.5495     6.7839    -6.1523 H            1    LIG   0.0000
  56 H           -6.1698     8.6557    -4.5095 H            1    LIG   0.0000
  57 H           -5.9827     7.0746    -4.1466 H            1    LIG   0.0000
  58 H           -5.6142     8.2158    -3.0383 H            1    LIG   0.0000
  59 H           -4.8748     6.3469    -2.5677 H            1    LIG   0.0000
  60 H           -3.5303     4.7594    -1.3781 H            1    LIG   0.0000
  61 H           -3.0496     4.2370     0.0889 H            1    LIG   0.0000
  62 H           -2.7100     2.7521     0.6773 H            1    LIG   0.0000
  63 H           -6.0903     0.8051    -4.5866 H            1    LIG   0.0000
  64 H           -4.9193     1.7151    -5.2702 H            1    LIG   0.0000
  65 H           -4.5657     0.2295    -4.6916 H            1    LIG   0.0000
  66 H           -5.0670     3.1816     0.8600 H            1    LIG   0.0000
  67 H           -6.4425     3.4334     0.0166 H            1    LIG   0.0000
  68 H           -6.1054     1.9475     0.6040 H            1    LIG   0.0000
@<TRIPOS>BOND
   1        1        2 1
   2        2        3 1
   3        3        4 1
   4        4        5 1
   5        5        6 2
   6        6        7 1
   7        7        8 1
   8        8        9 1
   9        9       10 1
  10       10       11 1
  11       10       12 1
  12       12       13 2
  13       13       14 1
  14       14       15 2
  15       15       16 1
  16       16       17 ar
  17       17       18 ar
  18       18       19 ar
  19       19       20 1
  20       20       21 1
  21       20       22 1
  22       20       23 1
  23       19       24 ar
  24       24       25 ar
  25       25       16 ar
  26       15       26 1
  27       26       12 1
  28       26       27 1
  29       27       28 1
  30       28       29 1
  31       29       30 1
  32       30       31 1
  33       30       32 2
  34       32       33 1
  35       33       28 2
  36       33       34 1
  37        8       35 2
  38       35        5 1
  39        1       36 1
  40        1       37 1
  41        1       38 1
  42        3       39 1
  43        3       40 1
  44        4       41 1
  45        4       42 1
  46        9       43 1
  47        9       44 1
  48       11       45 1
  49       11       46 1
  50       11       47 1
  51       17       48 1
  52       18       49 1
  53       21       50 1
  54       21       51 1
  55       21       52 1
  56       22       53 1
  57       22       54 1
  58       22       55 1
  59       23       56 1
  60       23       57 1
  61       23       58 1
  62       24       59 1
  63       25       60 1
  64       27       61 1
  65       27       62 1
  66       31       63 1
  67       31       64 1
  68       31       65 1
  69       34       66 1
  70       34       67 1
  71       34       68 1

@<TRIPOS>MOLECULE

  68   71
SMALL
USER_CHARGES
@<TRIPOS>ATOM
   1 C1           1.9862     2.1088     8.2760 C.3          1    LIG   0.0000
   2 O2           2.7113     2.7955     7.2666 O.3          1    LIG   0.0000
   3 C3           2.3530     2.4238     5.9438 C.3          1    LIG   0.0000
   4 C4           3.1872     3.2169     4.9511 C.3          1    LIG   0.0000
   5 C5           2.8037     2.8192     3.5357 C.2          1    LIG   0.0000
   6 N6           3.3203     3.3017     2.4340 N.2          1    LIG   0.0000
   7 O7           2.7648     2.7409     1.4446 O.2          1    LIG   0.0000
   8 C8           1.8781     1.8781     1.8781 C.2          1    LIG   0.0000
   9 C9           1.0000     1.0000     1.0000 C.3          1    LIG   0.0000
  10 N10         -0.2538     1.7059     0.6992 N.pl3        1    LIG   0.0000
  11 C11         -1.4752     1.3882     1.4530 C.3          1    LIG   0.0000
  12 C12         -0.2847     2.6803    -0.3046 C.2          1    LIG   0.0000
  13 N13          0.7223     3.0639    -1.0527 N.2          1    LIG   0.0000
  14 N14          0.3118     4.0100    -1.8786 N.2          1    LIG   0.0000
  15 C15         -0.9617     4.2418    -1.6958 C.2          1    LIG   0.0000
  16 C16         -1.7769     5.2017    -2.4141 C.ar         1    LIG   0.0000
  17 C17         -1.1975     5.9821    -3.4091 C.ar         1    LIG   0.0000
  18 C18         -1.9836     6.9019    -4.0954 C.ar         1    LIG   0.0000
  19 C19         -3.3322     7.0338    -3.7828 C.ar         1    LIG   0.0000
  20 C20         -4.1835     8.0412    -4.5371 C.3          1    LIG   0.0000
  21 C21         -3.6163     9.4367    -4.3340 C.3          1    LIG   0.0000
  22 C22         -4.1764     7.7020    -6.0187 C.3          1    LIG   0.0000
  23 C23         -5.6095     7.9927    -4.0130 C.3          1    LIG   0.0000
  24 C24         -3.9041     6.2483    -2.7867 C.ar         1    LIG   0.0000
  25 C25         -3.1256     5.3263    -2.0956 C.ar         1    LIG   0.0000
  26 N26         -1.3634     3.4140    -0.6956 N.pl3        1    LIG   0.0000
  27 C27         -2.7217     3.3216    -0.1446 C.3          1    LIG   0.0000
  28 C28         -3.0327     4.5809     0.6524 C.2          1    LIG   0.0000
  29 S29         -2.0087     5.9052     0.9255 S.3          1    LIG   0.0000
  30 C30         -3.0961     6.8135     1.8685 C.2          1    LIG   0.0000
  31 C31         -2.7667     8.1825     2.4472 C.3          1    LIG   0.0000
  32 N32         -4.2054     6.1138     1.9754 N.2          1    LIG   0.0000
  33 C33         -4.1792     4.9011     1.3261 C.2          1    LIG   0.0000
  34 C34         -5.3380     3.9220     1.3246 C.3          1    LIG   0.0000
  35 N35          1.8678     1.8977     3.1879 N.2          1    LIG   0.0000
  36 H            2.2908     2.4207     9.1760 H            1    LIG   0.0000
  37 H            1.0096     2.2965     8.1711 H            1    LIG   0.0000
  38 H            2.1476     1.1255     8.1919 H            1    LIG   0.0000
  39 H            1.3834     2.6176     5.7942 H            1    LIG   0.0000
  40 H            2.5213     1.4466     5.8150 H            1    LIG   0.0000
  41 H            3.0188     4.1942     5.0799 H            1    LIG   0.0000
  42 H            4.1567     3.0232     5.1006 H            1    LIG   0.0000
  43 H            1.4802     0.7954     0.1471 H            1    LIG   0.0000
  44 H            0.7954     0.1471     1.4802 H            1    LIG   0.0000
  45 H           -1.2759     0.6758     2.1257 H            1    LIG   0.0000
  46 H           -1.7999     2.2090     1.9229 H            1    LIG   0.0000
  47 H           -2.1808     1.0638     0.8230 H            1    LIG   0.0000
  48 H           -0.2269     5.8830    -3.6286 H            1    LIG   0.0000
  49 H           -1.5789     7.4682    -4.8133 H            1    LIG   0.0000
  50 H           -4.1766    10.0997    -4.8304 H            1    LIG   0.0000
  51 H           -3.6210     9.6598    -3.3592 H            1    LIG   0.0000
  52 H           -2.6781     9.4686    -4.6788 H            1    LIG   0.0000
  53 H           -4.7367     8.3650    -6.5152 H            1    LIG   0.0000
  54 H           -3.2382     7.7339    -6.3635 H            1    LIG   0.0000
  55 H           -4.5495     6.7839    -6.1523 H            1    LIG   0.0000
  56 H           -6.1698     8.6557    -4.5095 H            1    LIG   0.0000
  57 H           -5.9827     7.0746    -4.1466 H            1    LIG   0.0000
  58 H           -5.6142     8.2158    -3.0383 H            1    LIG   0.0000
  59 H           -4.8748     6.3469    -2.5677 H            1    LIG   0.0000
  60 H           -3.5303     4.7594    -1.3781 H            1    LIG   0.0000
  61 H           -2.7847     2.5237     0.4549 H            1    LIG   0.0000
  62 H           -3.3792     3.2296    -0.8923 H            1    LIG   0.0000
  63 H           -3.5522     8.5241     2.9631 H            1    LIG   0.0000
  64 H           -1.9763     8.1060     3.0550 H            1    LIG   0.0000
  65 H           -2.5550     8.8166     1.7034 H            1    LIG   0.0000
  66 H           -5.0908     3.1138     0.7901 H            1    LIG   0.0000
  67 H           -5.5455     3.6496     2.2641 H            1    LIG   0.0000
  68 H           -6.1416     4.3572     0.9185 H            1    LIG   0.0000
@<TRIPOS>BOND
   1        1        2 1
   2        2        3 1
   3        3        4 1
   4        4        5 1
   5        5        6 2
   6        6        7 1
   7        7        8 1
   8        8        9 1
   9        9       10 1
  10       10       11 1
  11       10       12 1
  12       12       13 2
  13       13       14 1
  14       14       15 2
  15       15       16 1
  16       16       17 ar
  17       17       18 ar
  18       18       19 ar
  19       19       20 1
  20       20       21 1
  21       20       22 1
  22       20       23 1
  23       19       24 ar
  24       24       25 ar
  25       25       16 ar
  26       15       26 1
  27       26       12 1
  28       26       27 1
  29       27       28 1
  30       28       29 1
  31       29       30 1
  32       30       31 1
  33       30       32 2
  34       32       33 1
  35       33       28 2
  36       33       34 1
  37        8       35 2
  38       35        5 1
  39        1       36 1
  40        1       37 1
  41        1       38 1
  42        3       39 1
  43        3       40 1
  44        4       41 1
  45        4       42 1
  46        9       43 1
  47        9       44 1
  48       11       45 1
  49       11       46 1
  50       11       47 1
  51       17       48 1
  52       18       49 1
  53       21       50 1
  54       21       51 1
  55       21       52 1
  56       22       53 1
  57       22       54 1
  58       22       55 1
  59       23       56 1
  60       23       57 1
  61       23       58 1
  62       24       59 1
  63       25       60 1
  64       27       61 1
  65       27       62 1
  66       31       63 1
  67       31       64 1
  68       31       65 1
  69       34       66 1
  70       34       67 1
  71       34       68 1

@<TRIPOS>MOLECULE

  68   71
SMALL
USER_CHARGES
@<TRIPOS>ATOM
   1 C1           1.9862     2.1088     8.2760 C.3          1    LIG   0.0000
   2 O2           2.7113     2.7955     7.2666 O.3          1    LIG   0.0000
   3 C3           2.3530     2.4238     5.9438 C.3          1    LIG   0.0000
   4 C4           3.1872     3.2169     4.9511 C.3          1    LIG   0.0000
   5 C5           2.8037     2.8192     3.5357 C.2          1    LIG   0.0000
   6 N6           3.3203     3.3017     2.4340 N.2          1    LIG   0.0000
   7 O7           2.7648     2.7409     1.4446 O.2          1    LIG   0.0000
   8 C8           1.8781     1.8781     1.8781 C.2          1    LIG   0.0000
   9 C9           1.0000     1.0000     1.0000 C.3          1    LIG   0.0000
  10 N10         -0.2538     1.7059     0.6992 N.pl3        1    LIG   0.0000
  11 C11         -1.3378     1.7340     1.6917 C.3          1    LIG   0.0000
  12 C12         -0.4155     2.3511    -0.5319 C.2          1    LIG   0.0000
  13 N13         -1.5514     2.6945    -1.0911 N.2          1    LIG   0.0000
  14 N14         -1.3041     3.2718    -2.2535 N.2          1    LIG   0.0000
  15 C15         -0.0143     3.3299    -2.4589 C.2          1    LIG   0.0000
  16 C16          0.6518     3.8977    -3.6146 C.ar         1    LIG   0.0000
  17 C17          0.0546     4.9512    -4.2990 C.ar         1    LIG   0.0000
  18 C18          0.6974     5.4926    -5.4074 C.ar         1    LIG   0.0000
  19 C19          1.9223     4.9795    -5.8202 C.ar         1    LIG   0.0000
  20 C20          2.6173     5.5765    -7.0321 C.3          1    LIG   0.0000
  21 C21          1.7226     5.4305    -8.2523 C.3          1    LIG   0.0000
  22 C22          2.8963     7.0495    -6.7817 C.3          1    LIG   0.0000
  23 C23          3.9283     4.8466    -7.2750 C.3          1    LIG   0.0000
  24 C24          2.5132     3.9261    -5.1290 C.ar         1    LIG   0.0000
  25 C25          1.8775     3.3789    -4.0198 C.ar         1    LIG   0.0000
  26 N26          0.5730     2.7449    -1.3818 N.pl3        1    LIG   0.0000
  27 C27          2.0169     2.5787    -1.1702 C.3          1    LIG   0.0000
  28 C28          2.7059     3.9313    -1.2869 C.2          1    LIG   0.0000
  29 S29          3.9323     4.3713    -2.3728 S.3          1    LIG   0.0000
  30 C30          4.1137     5.9765    -1.8368 C.2          1    LIG   0.0000
  31 C31          5.1046     6.9590    -2.4451 C.3          1    LIG   0.0000
  32 N32          3.2640     6.1611    -0.8491 N.2          1    LIG   0.0000
  33 C33          2.5017     5.0585    -0.5394 C.2          1    LIG   0.0000
  34 C34          1.4683     5.0345     0.5710 C.3          1    LIG   0.0000
  35 N35          1.8678     1.8977     3.1879 N.2          1    LIG   0.0000
  36 H            2.2908     2.4207     9.1760 H            1    LIG   0.0000
  37 H            1.0096     2.2965     8.1711 H            1    LIG   0.0000
  38 H            2.1476     1.1255     8.1919 H            1    LIG   0.0000
  39 H            1.3834     2.6176     5.7942 H            1    LIG   0.0000
  40 H            2.5213     1.4466     5.8150 H            1    LIG   0.0000
  41 H            3.0188     4.1942     5.0799 H            1    LIG   0.0000
  42 H            4.1567     3.0232     5.1006 H            1    LIG   0.0000
  43 H            1.4802     0.7954     0.1471 H            1    LIG   0.0000
  44 H            0.7954     0.1471     1.4802 H            1    LIG   0.0000
  45 H           -1.0564     1.2280     2.5071 H            1    LIG   0.0000
  46 H           -1.5378     2.6818     1.9401 H            1    LIG   0.0000
  47 H           -2.1566     1.3114     1.3032 H            1    LIG   0.0000
  48 H           -0.8267     5.3152    -3.9976 H            1    LIG   0.0000
  49 H            0.2787     6.2506    -5.9075 H            1    LIG   0.0000
  50 H            2.1801     5.8235    -9.0500 H            1    LIG   0.0000
  51 H            1.5391     4.4614    -8.4170 H            1    LIG   0.0000
  52 H            0.8601     5.9107    -8.0925 H            1    LIG   0.0000
  53 H            3.3538     7.4424    -7.5794 H            1    LIG   0.0000
  54 H            2.0338     7.5297    -6.6219 H            1    LIG   0.0000
  55 H            3.4849     7.1455    -5.9790 H            1    LIG   0.0000
  56 H            4.3858     5.2396    -8.0727 H            1    LIG   0.0000
  57 H            4.5169     4.9426    -6.4723 H            1    LIG   0.0000
  58 H            3.7448     3.8775    -7.4398 H            1    LIG   0.0000
  59 H            3.3948     3.5627    -5.4300 H            1    LIG   0.0000
  60 H            2.2965     2.6213    -3.5193 H            1    LIG   0.0000
  61 H            2.3855     1.9563    -1.8607 H            1    LIG   0.0000
  62 H            2.1788     2.1996    -0.2592 H            1    LIG   0.0000
  63 H            5.0356     7.8377    -1.9726 H            1    LIG   0.0000
  64 H            6.0328     6.6000    -2.3472 H            1    LIG   0.0000
  65 H            4.8965     7.0849    -3.4151 H            1    LIG   0.0000
  66 H            1.0417     4.1310     0.6099 H            1    LIG   0.0000
  67 H            1.9133     5.2310     1.4447 H            1    LIG   0.0000
  68 H            0.7688     5.7259     0.3903 H            1    LIG   0.0000
@<TRIPOS>BOND
   1        1        2 1
   2        2        3 1
   3        3        4 1
   4        4        5 1
   5        5        6 2
   6        6        7 1
   7        7        8 1
   8        8        9 1
   9        9       10 1
  10       10       11 1
  11       10       12 1
  12       12       13 2
  13       13       14 1
  14       14       15 2
  15       15       16 1
  16       16       17 ar
  17       17       18 ar
  18       18       19 ar
  19       19       20 1
  20       20       21 1
  21       20       22 1
  22       20       23 1
  23       19       24 ar
  24       24       25 ar
  25       25       16 ar
  26       15       26 1
  27       26       12 1
  28       26       27 1
  29       27       28 1
  30       28       29 1
  31       29       30 1
  32       30       31 1
  33       30       32 2
  34       32       33 1
  35       33       28 2
  36       33       34 1
  37        8       35 2
  38       35        5 1
  39        1       36 1
  40        1       37 1
  41        1       38 1
  42        3       39 1
  43        3       40 1
  44        4       41 1
  45        4       42 1
  46        9       43 1
  47        9       44 1
  48       11       45 1
  49       11       46 1
  50       11       47 1
  51       17       48 1
  52       18       49 1
  53       21       50 1
  54       21       51 1
  55       21       52 1
  56       22       53 1
  57       22       54 1
  58       22       55 1
  59       23       56 1
  60       23       57 1
  61       23       58 1
  62       24       59 1
  63       25       60 1
  64       27       61 1
  65       27       62 1
  66       31       63 1
  67       31       64 1
  68       31       65 1
  69       34       66 1
  70       34       67 1
  71       34       68 1

@<TRIPOS>MOLECULE

  68   71
SMALL
USER_CHARGES
@<TRIPOS>ATOM
   1 C1           1.9862     2.1088     8.2760 C.3          1    LIG   0.0000
   2 O2           2.7113     2.7955     7.2666 O.3          1    LIG   0.0000
   3 C3           2.3530     2.4238     5.9438 C.3          1    LIG   0.0000
   4 C4           3.1872     3.2169     4.9511 C.3          1    LIG   0.0000
   5 C5           2.8037     2.8192     3.5357 C.2          1    LIG   0.0000
   6 N6           3.3203     3.3017     2.4340 N.2          1    LIG   0.0000
   7 O7           2.7648     2.7409     1.4446 O.2          1    LIG   0.0000
   8 C8           1.8781     1.8781     1.8781 C.2          1    LIG   0.0000
   9 C9           1.0000     1.0000     1.0000 C.3          1    LIG   0.0000
  10 N10         -0.2538     1.7059     0.6992 N.pl3        1    LIG   0.0000
  11 C11         -1.3378     1.7340     1.6917 C.3          1    LIG   0.0000
  12 C12         -0.4155     2.3511    -0.5319 C.2          1    LIG   0.0000
  13 N13         -0.1066     3.5956    -0.8086 N.2          1    LIG   0.0000
  14 N14         -0.4130     3.8474    -2.0688 N.2          1    LIG   0.0000
  15 C15         -0.9042     2.7751    -2.6327 C.2          1    LIG   0.0000
  16 C16         -1.3496     2.6483    -4.0065 C.ar         1    LIG   0.0000
  17 C17         -0.7503     3.4233    -4.9940 C.ar         1    LIG   0.0000
  18 C18         -1.1813     3.2983    -6.3107 C.ar         1    LIG   0.0000
  19 C19         -2.2009     2.4071    -6.6269 C.ar         1    LIG   0.0000
  20 C20         -2.6657     2.2771    -8.0675 C.3          1    LIG   0.0000
  21 C21         -2.4604     0.8468    -8.5391 C.3          1    LIG   0.0000
  22 C22         -4.1405     2.6338    -8.1581 C.3          1    LIG   0.0000
  23 C23         -1.8613     3.2208    -8.9465 C.3          1    LIG   0.0000
  24 C24         -2.7942     1.6348    -5.6329 C.ar         1    LIG   0.0000
  25 C25         -2.3696     1.7534    -4.3140 C.ar         1    LIG   0.0000
  26 N26         -0.9227     1.8113    -1.6747 N.pl3        1    LIG   0.0000
  27 C27         -1.3956     0.4316    -1.8474 C.3          1    LIG   0.0000
  28 C28         -2.4542     0.1229    -0.7977 C.2          1    LIG   0.0000
  29 S29         -2.4141    -1.1016     0.3753 S.3          1    LIG   0.0000
  30 C30         -3.9205    -0.7528     1.0865 C.2          1    LIG   0.0000
  31 C31         -4.4942    -1.5289     2.2638 C.3          1    LIG   0.0000
  32 N32         -4.4382     0.2662     0.4345 N.2          1    LIG   0.0000
  33 C33         -3.6555     0.7436    -0.5913 C.2          1    LIG   0.0000
  34 C34         -4.0554     1.9010    -1.4867 C.3          1    LIG   0.0000
  35 N35          1.8678     1.8977     3.1879 N.2          1    LIG   0.0000
  36 H            2.2908     2.4207     9.1760 H            1    LIG   0.0000
  37 H            1.0096     2.2965     8.1711 H            1    LIG   0.0000
  38 H            2.1476     1.1255     8.1919 H            1    LIG   0.0000
  39 H            1.3834     2.6176     5.7942 H            1    LIG   0.0000
  40 H            2.5213     1.4466     5.8150 H            1    LIG   0.0000
  41 H            3.0188     4.1942     5.0799 H            1    LIG   0.0000
  42 H            4.1567     3.0232     5.1006 H            1    LIG   0.0000
  43 H            1.4802     0.7954     0.1471 H            1    LIG   0.0000
  44 H            0.7954     0.1471     1.4802 H            1    LIG   0.0000
  45 H           -1.0564     1.2280     2.5071 H            1    LIG   0.0000
  46 H           -1.5378     2.6818     1.9401 H            1    LIG   0.0000
  47 H           -2.1566     1.3114     1.3032 H            1    LIG   0.0000
  48 H           -0.0181     4.0629    -4.7601 H            1    LIG   0.0000
  49 H           -0.7579     3.8493    -7.0298 H            1    LIG   0.0000
  50 H           -2.7664     0.7613    -9.4873 H            1    LIG   0.0000
  51 H           -1.4902     0.6122    -8.4794 H            1    LIG   0.0000
  52 H           -2.9897     0.2259    -7.9608 H            1    LIG   0.0000
  53 H           -4.4465     2.5482    -9.1063 H            1    LIG   0.0000
  54 H           -4.6698     2.0129    -7.5798 H            1    LIG   0.0000
  55 H           -4.2756     3.5748    -7.8479 H            1    LIG   0.0000
  56 H           -2.1673     3.1353    -9.8947 H            1    LIG   0.0000
  57 H           -1.9964     4.1618    -8.6362 H            1    LIG   0.0000
  58 H           -0.8911     2.9862    -8.8869 H            1    LIG   0.0000
  59 H           -3.5259     0.9946    -5.8670 H            1    LIG   0.0000
  60 H           -2.7924     1.2018    -3.5950 H            1    LIG   0.0000
  61 H           -0.6274    -0.1998    -1.7418 H            1    LIG   0.0000
  62 H           -1.7905     0.3263    -2.7601 H            1    LIG   0.0000
  63 H           -5.3854    -1.1487     2.5111 H            1    LIG   0.0000
  64 H           -4.6009    -2.4901     2.0092 H            1    LIG   0.0000
  65 H           -3.8732    -1.4577     3.0443 H            1    LIG   0.0000
  66 H           -3.3327     2.0689    -2.1572 H            1    LIG   0.0000
  67 H           -4.9058     1.6761    -1.9624 H            1    LIG   0.0000
  68 H           -4.1913     2.7211    -0.9307 H            1    LIG   0.0000
@<TRIPOS>BOND
   1        1        2 1
   2        2        3 1
   3        3        4 1
   4        4        5 1
   5        5        6 2
   6        6        7 1
   7        7        8 1
   8        8        9 1
   9        9       10 1
  10       10       11 1
  11       10       12 1
  12       12       13 2
  13       13       14 1
  14       14       15 2
  15       15       16 1
  16       16       17 ar
  17       17       18 ar
  18       18       19 ar
  19       19       20 1
  20       20       21 1
  21       20       22 1
  22       20       23 1
  23       19       24 ar
  24       24       25 ar
  25       25       16 ar
  26       15       26 1
  27       26       12 1
  28       26       27 1
  29       27       28 1
  30       28       29 1
  31       29       30 1
  32       30       31 1
  33       30       32 2
  34       32       33 1
  35       33       28 2
  36       33       34 1
  37        8       35 2
  38       35        5 1
  39        1       36 1
  40        1       37 1
  41        1       38 1
  42        3       39 1
  43        3       40 1
  44        4       41 1
  45        4       42 1
  46        9       43 1
  47        9       44 1
  48       11       45 1
  49       11       46 1
  50       11       47 1
  51       17       48 1
  52       18       49 1
  53       21       50 1
  54       21       51 1
  55       21       52 1
  56       22       53 1
  57       22       54 1
  58       22       55 1
  59       23       56 1
  60       23       57 1
  61       23       58 1
  62       24       59 1
  63       25       60 1
  64       27       61 1
  65       27       62 1
  66       31       63 1
  67       31       64 1
  68       31       65 1
  69       34       66 1
  70       34       67 1
  71       34       68 1

@<TRIPOS>MOLECULE

  68   71
SMALL
USER_CHARGES
@<TRIPOS>ATOM
   1 C1           1.9862     2.1088     8.2760 C.3          1    LIG   0.0000
   2 O2           2.7113     2.7955     7.2666 O.3          1    LIG   0.0000
   3 C3           2.3530     2.4238     5.9438 C.3          1    LIG   0.0000
   4 C4           3.1872     3.2169     4.9511 C.3          1    LIG   0.0000
   5 C5           2.8037     2.8192     3.5357 C.2          1    LIG   0.0000
   6 N6           3.3203     3.3017     2.4340 N.2          1    LIG   0.0000
   7 O7           2.7648     2.7409     1.4446 O.2          1    LIG   0.0000
   8 C8           1.8781     1.8781     1.8781 C.2          1    LIG   0.0000
   9 C9           1.0000     1.0000     1.0000 C.3          1    LIG   0.0000
  10 N10         -0.2538     1.7059     0.6992 N.pl3        1    LIG   0.0000
  11 C11         -1.3378     1.7340     1.6917 C.3          1    LIG   0.0000
  12 C12         -0.4155     2.3511    -0.5319 C.2          1    LIG   0.0000
  13 N13          0.2667     2.1237    -1.6290 N.2          1    LIG   0.0000
  14 N14         -0.1619     2.9338    -2.5806 N.2          1    LIG   0.0000
  15 C15         -1.1338     3.6816    -2.1275 C.2          1    LIG   0.0000
  16 C16         -1.8679     4.6877    -2.8696 C.ar         1    LIG   0.0000
  17 C17         -2.0394     4.5358    -4.2417 C.ar         1    LIG   0.0000
  18 C18         -2.7442     5.5039    -4.9496 C.ar         1    LIG   0.0000
  19 C19         -3.2669     6.6081    -4.2852 C.ar         1    LIG   0.0000
  20 C20         -4.0351     7.6609    -5.0661 C.3          1    LIG   0.0000
  21 C21         -5.4506     7.7631    -4.5216 C.3          1    LIG   0.0000
  22 C22         -3.3394     9.0049    -4.9243 C.3          1    LIG   0.0000
  23 C23         -4.0839     7.2679    -6.5336 C.3          1    LIG   0.0000
  24 C24         -3.0916     6.7516    -2.9122 C.ar         1    LIG   0.0000
  25 C25         -2.3883     5.7886    -2.1967 C.ar         1    LIG   0.0000
  26 N26         -1.3099     3.3354    -0.8251 N.pl3        1    LIG   0.0000
  27 C27         -2.2970     3.9137     0.0959 C.3          1    LIG   0.0000
  28 C28         -3.1573     2.8023     0.6810 C.2          1    LIG   0.0000
  29 S29         -3.7900     1.4545    -0.1315 S.3          1    LIG   0.0000
  30 C30         -4.5913     0.7682     1.2040 C.2          1    LIG   0.0000
  31 C31         -5.3838    -0.5296     1.1330 C.3          1    LIG   0.0000
  32 N32         -4.3844     1.5573     2.2365 N.2          1    LIG   0.0000
  33 C33         -3.6148     2.6644     1.9627 C.2          1    LIG   0.0000
  34 C34         -3.2593     3.7184     2.9942 C.3          1    LIG   0.0000
  35 N35          1.8678     1.8977     3.1879 N.2          1    LIG   0.0000
  36 H            2.2908     2.4207     9.1760 H            1    LIG   0.0000
  37 H            1.0096     2.2965     8.1711 H            1    LIG   0.0000
  38 H            2.1476     1.1255     8.1919 H            1    LIG   0.0000
  39 H            1.3834     2.6176     5.7942 H            1    LIG   0.0000
  40 H            2.5213     1.4466     5.8150 H            1    LIG   0.0000
  41 H            3.0188     4.1942     5.0799 H            1    LIG   0.0000
  42 H            4.1567     3.0232     5.1006 H            1    LIG   0.0000
  43 H            1.4802     0.7954     0.1471 H            1    LIG   0.0000
  44 H            0.7954     0.1471     1.4802 H            1    LIG   0.0000
  45 H           -1.0564     1.2280     2.5071 H            1    LIG   0.0000
  46 H           -1.5378     2.6818     1.9401 H            1    LIG   0.0000
  47 H           -2.1566     1.3114     1.3032 H            1    LIG   0.0000
  48 H           -1.6604     3.7399    -4.7137 H            1    LIG   0.0000
  49 H           -2.8749     5.4058    -5.9361 H            1    LIG   0.0000
  50 H           -5.9562     8.4560    -5.0356 H            1    LIG   0.0000
  51 H           -5.9083     6.8789    -4.6149 H            1    LIG   0.0000
  52 H           -5.4185     8.0216    -3.5562 H            1    LIG   0.0000
  53 H           -3.8451     9.6978    -5.4383 H            1    LIG   0.0000
  54 H           -3.3074     9.2634    -3.9589 H            1    LIG   0.0000
  55 H           -2.4082     8.9376    -5.2825 H            1    LIG   0.0000
  56 H           -4.5895     7.9608    -7.0476 H            1    LIG   0.0000
  57 H           -3.1527     7.2006    -6.8918 H            1    LIG   0.0000
  58 H           -4.5416     6.3837    -6.6269 H            1    LIG   0.0000
  59 H           -3.4714     7.5471    -2.4401 H            1    LIG   0.0000
  60 H           -2.2582     5.8863    -1.2100 H            1    LIG   0.0000
  61 H           -2.8781     4.5588    -0.4003 H            1    LIG   0.0000
  62 H           -1.8230     4.3924     0.8349 H            1    LIG   0.0000
  63 H           -5.7645    -0.7374     2.0340 H            1    LIG   0.0000
  64 H           -6.1273    -0.4304     0.4717 H            1    LIG   0.0000
  65 H           -4.7800    -1.2736     0.8466 H            1    LIG   0.0000
  66 H           -2.6946     4.4250     2.5677 H            1    LIG   0.0000
  67 H           -4.0971     4.1316     3.3510 H            1    LIG   0.0000
  68 H           -2.7517     3.2935     3.7437 H            1    LIG   0.0000
@<TRIPOS>BOND
   1        1        2 1
   2        2        3 1
   3        3        4 1
   4        4        5 1
   5        5        6 2
   6        6        7 1
   7        7        8 1
   8        8        9 1
   9        9       10 1
  10       10       11 1
  11       10       12 1
  12       12       13 2
  13       13       14 1
  14       14       15 2
  15       15       16 1
  16       16       17 ar
  17       17       18 ar
  18       18       19 ar
  19       19       20 1
  20       20       21 1
  21       20       22 1
  22       20       23 1
  23       19       24 ar
  24       24       25 ar
  25       25       16 ar
  26       15       26 1
  27       26       12 1
  28       26       27 1
  29       27       28 1
  30       28       29 1
  31       29       30 1
  32       30       31 1
  33       30       32 2
  34       32       33 1
  35       33       28 2
  36       33       34 1
  37        8       35 2
  38       35        5 1
  39        1       36 1
  40        1       37 1
  41        1       38 1
  42        3       39 1
  43        3       40 1
  44        4       41 1
  45        4       42 1
  46        9       43 1
  47        9       44 1
  48       11       45 1
  49       11       46 1
  50       11       47 1
  51       17       48 1
  52       18       49 1
  53       21       50 1
  54       21       51 1
  55       21       52 1
  56       22       53 1
  57       22       54 1
  58       22       55 1
  59       23       56 1
  60       23       57 1
  61       23       58 1
  62       24       59 1
  63       25       60 1
  64       27       61 1
  65       27       62 1
  66       31       63 1
  67       31       64 1
  68       31       65 1
  69       34       66 1
  70       34       67 1
  71       34       68 1

@<TRIPOS>MOLECULE

  68   71
SMALL
USER_CHARGES
@<TRIPOS>ATOM
   1 C1           1.9862     2.1088     8.2760 C.3          1    LIG   0.0000
   2 O2           2.7113     2.7955     7.2666 O.3          1    LIG   0.0000
   3 C3           2.3530     2.4238     5.9438 C.3          1    LIG   0.0000
   4 C4           3.1872     3.2169     4.9511 C.3          1    LIG   0.0000
   5 C5           2.8037     2.8192     3.5357 C.2          1    LIG   0.0000
   6 N6           3.3203     3.3017     2.4340 N.2          1    LIG   0.0000
   7 O7           2.7648     2.7409     1.4446 O.2          1    LIG   0.0000
   8 C8           1.8781     1.8781     1.8781 C.2          1    LIG   0.0000
   9 C9           1.0000     1.0000     1.0000 C.3          1    LIG   0.0000
  10 N10         -0.2538     1.7059     0.6992 N.pl3        1    LIG   0.0000
  11 C11         -1.5410     1.1233     1.1051 C.3          1    LIG   0.0000
  12 C12         -0.2221     2.9325     0.0265 C.2          1    LIG   0.0000
  13 N13         -0.2671     3.1131    -1.2721 N.2          1    LIG   0.0000
  14 N14         -0.2035     4.4070    -1.5313 N.2          1    LIG   0.0000
  15 C15         -0.1358     5.0842    -0.4150 C.2          1    LIG   0.0000
  16 C16         -0.0612     6.5259    -0.2823 C.ar         1    LIG   0.0000
  17 C17         -0.6582     7.3331    -1.2451 C.ar         1    LIG   0.0000
  18 C18         -0.5837     8.7159    -1.1136 C.ar         1    LIG   0.0000
  19 C19          0.0830     9.2762    -0.0294 C.ar         1    LIG   0.0000
  20 C20          0.1599    10.7875     0.1063 C.3          1    LIG   0.0000
  21 C21          0.8671    11.3698    -1.1067 C.3          1    LIG   0.0000
  22 C22         -1.2451    11.3602     0.1969 C.3          1    LIG   0.0000
  23 C23          0.9347    11.1445     1.3643 C.3          1    LIG   0.0000
  24 C24          0.6765     8.4613     0.9298 C.ar         1    LIG   0.0000
  25 C25          0.6068     7.0779     0.8062 C.ar         1    LIG   0.0000
  26 N26         -0.1392     4.1694     0.5901 N.pl3        1    LIG   0.0000
  27 C27         -0.0758     4.4659     2.0273 C.3          1    LIG   0.0000
  28 C28         -1.2635     3.8239     2.7307 C.2          1    LIG   0.0000
  29 S29         -1.2846     2.3591     3.5857 S.3          1    LIG   0.0000
  30 C30         -2.9309     2.3971     4.0158 C.2          1    LIG   0.0000
  31 C31         -3.6092     1.3132     4.8418 C.3          1    LIG   0.0000
  32 N32         -3.4459     3.4968     3.5088 N.2          1    LIG   0.0000
  33 C33         -2.5534     4.2729     2.8061 C.2          1    LIG   0.0000
  34 C34         -2.9260     5.5753     2.1233 C.3          1    LIG   0.0000
  35 N35          1.8678     1.8977     3.1879 N.2          1    LIG   0.0000
  36 H            2.2908     2.4207     9.1760 H            1    LIG   0.0000
  37 H            1.0096     2.2965     8.1711 H            1    LIG   0.0000
  38 H            2.1476     1.1255     8.1919 H            1    LIG   0.0000
  39 H            1.3834     2.6176     5.7942 H            1    LIG   0.0000
  40 H            2.5213     1.4466     5.8150 H            1    LIG   0.0000
  41 H            3.0188     4.1942     5.0799 H            1    LIG   0.0000
  42 H            4.1567     3.0232     5.1006 H            1    LIG   0.0000
  43 H            1.4802     0.7954     0.1471 H            1    LIG   0.0000
  44 H            0.7954     0.1471     1.4802 H            1    LIG   0.0000
  45 H           -1.3809     0.2527     1.5703 H            1    LIG   0.0000
  46 H           -2.0102     1.7514     1.7258 H            1    LIG   0.0000
  47 H           -2.1074     0.9695     0.2955 H            1    LIG   0.0000
  48 H           -1.1355     6.9240    -2.0228 H            1    LIG   0.0000
  49 H           -1.0094     9.3070    -1.7987 H            1    LIG   0.0000
  50 H            0.9177    12.3645    -1.0174 H            1    LIG   0.0000
  51 H            1.7915    10.9930    -1.1664 H            1    LIG   0.0000
  52 H            0.3573    11.1349    -1.9343 H            1    LIG   0.0000
  53 H           -1.1945    12.3550     0.2862 H            1    LIG   0.0000
  54 H           -1.7549    11.1254    -0.6307 H            1    LIG   0.0000
  55 H           -1.7104    10.9772     0.9949 H            1    LIG   0.0000
  56 H            0.9854    12.1392     1.4536 H            1    LIG   0.0000
  57 H            0.4695    10.7615     2.1623 H            1    LIG   0.0000
  58 H            1.8591    10.7677     1.3046 H            1    LIG   0.0000
  59 H            1.1531     8.8705     1.7079 H            1    LIG   0.0000
  60 H            1.0320     6.4868     1.4916 H            1    LIG   0.0000
  61 H           -0.1023     5.4560     2.1648 H            1    LIG   0.0000
  62 H            0.7740     4.0993     2.4061 H            1    LIG   0.0000
  63 H           -4.5734     1.5458     4.9696 H            1    LIG   0.0000
  64 H           -3.5381     0.4371     4.3649 H            1    LIG   0.0000
  65 H           -3.1618     1.2446     5.7335 H            1    LIG   0.0000
  66 H           -2.1183     5.9610     1.6774 H            1    LIG   0.0000
  67 H           -3.6339     5.4021     1.4386 H            1    LIG   0.0000
  68 H           -3.2716     6.2215     2.8038 H            1    LIG   0.0000
@<TRIPOS>BOND
   1        1        2 1
   2        2        3 1
   3        3        4 1
   4        4        5 1
   5        5        6 2
   6        6        7 1
   7        7        8 1
   8        8        9 1
   9        9       10 1
  10       10       11 1
  11       10       12 1
  12       12       13 2
  13       13       14 1
  14       14       15 2
  15       15       16 1
  16       16       17 ar
  17       17       18 ar
  18       18       19 ar
  19       19       20 1
  20       20       21 1
  21       20       22 1
  22       20       23 1
  23       19       24 ar
  24       24       25 ar
  25       25       16 ar
  26       15       26 1
  27       26       12 1
  28       26       27 1
  29       27       28 1
  30       28       29 1
  31       29       30 1
  32       30       31 1
  33       30       32 2
  34       32       33 1
  35       33       28 2
  36       33       34 1
  37        8       35 2
  38       35        5 1
  39        1       36 1
  40        1       37 1
  41        1       38 1
  42        3       39 1
  43        3       40 1
  44        4       41 1
  45        4       42 1
  46        9       43 1
  47        9       44 1
  48       11       45 1
  49       11       46 1
  50       11       47 1
  51       17       48 1
  52       18       49 1
  53       21       50 1
  54       21       51 1
  55       21       52 1
  56       22       53 1
  57       22       54 1
  58       22       55 1
  59       23       56 1
  60       23       57 1
  61       23       58 1
  62       24       59 1
  63       25       60 1
  64       27       61 1
  65       27       62 1
  66       31       63 1
  67       31       64 1
  68       31       65 1
  69       34       66 1
  70       34       67 1
  71       34       68 1

@<TRIPOS>MOLECULE

  68   71
SMALL
USER_CHARGES
@<TRIPOS>ATOM
   1 C1           1.9862     2.1088     8.2760 C.3          1    LIG   0.0000
   2 O2           2.7113     2.7955     7.2666 O.3          1    LIG   0.0000
   3 C3           2.3530     2.4238     5.9438 C.3          1    LIG   0.0000
   4 C4           3.1872     3.2169     4.9511 C.3          1    LIG   0.0000
   5 C5           2.8037     2.8192     3.5357 C.2          1    LIG   0.0000
   6 N6           3.3203     3.3017     2.4340 N.2          1    LIG   0.0000
   7 O7           2.7648     2.7409     1.4446 O.2          1    LIG   0.0000
   8 C8           1.8781     1.8781     1.8781 C.2          1    LIG   0.0000
   9 C9           1.0000     1.0000     1.0000 C.3          1    LIG   0.0000
  10 N10         -0.2538     1.7059     0.6992 N.pl3        1    LIG   0.0000
  11 C11         -1.5410     1.1233     1.1051 C.3          1    LIG   0.0000
  12 C12         -0.2221     2.9325     0.0265 C.2          1    LIG   0.0000
  13 N13          0.7621     3.3971    -0.7058 N.2          1    LIG   0.0000
  14 N14          0.4316     4.5897    -1.1683 N.2          1    LIG   0.0000
  15 C15         -0.7698     4.9093    -0.7636 C.2          1    LIG   0.0000
  16 C16         -1.4870     6.1320    -1.0675 C.ar         1    LIG   0.0000
  17 C17         -1.2455     6.7852    -2.2717 C.ar         1    LIG   0.0000
  18 C18         -1.9359     7.9582    -2.5588 C.ar         1    LIG   0.0000
  19 C19         -2.8544     8.4655    -1.6460 C.ar         1    LIG   0.0000
  20 C20         -3.6038     9.7474    -1.9674 C.3          1    LIG   0.0000
  21 C21         -5.0981     9.4697    -1.9860 C.3          1    LIG   0.0000
  22 C22         -3.2960    10.7933    -0.9083 C.3          1    LIG   0.0000
  23 C23         -3.1670    10.2618    -3.3294 C.3          1    LIG   0.0000
  24 C24         -3.0906     7.8051    -0.4442 C.ar         1    LIG   0.0000
  25 C25         -2.4048     6.6318    -0.1491 C.ar         1    LIG   0.0000
  26 N26         -1.2047     3.8751     0.0034 N.pl3        1    LIG   0.0000
  27 C27         -2.5072     3.7880     0.6767 C.3          1    LIG   0.0000
  28 C28         -2.3081     3.8935     2.1823 C.2          1    LIG   0.0000
  29 S29         -1.0858     3.1731     3.1119 S.3          1    LIG   0.0000
  30 C30         -1.5934     3.7766     4.6201 C.2          1    LIG   0.0000
  31 C31         -0.8717     3.4850     5.9284 C.3          1    LIG   0.0000
  32 N32         -2.6729     4.5000     4.4127 N.2          1    LIG   0.0000
  33 C33         -3.0717     4.5645     3.0975 C.2          1    LIG   0.0000
  34 C34         -4.2949     5.3276     2.6254 C.3          1    LIG   0.0000
  35 N35          1.8678     1.8977     3.1879 N.2          1    LIG   0.0000
  36 H            2.2908     2.4207     9.1760 H            1    LIG   0.0000
  37 H            1.0096     2.2965     8.1711 H            1    LIG   0.0000
  38 H            2.1476     1.1255     8.1919 H            1    LIG   0.0000
  39 H            1.3834     2.6176     5.7942 H            1    LIG   0.0000
  40 H            2.5213     1.4466     5.8150 H            1    LIG   0.0000
  41 H            3.0188     4.1942     5.0799 H            1    LIG   0.0000
  42 H            4.1567     3.0232     5.1006 H            1    LIG   0.0000
  43 H            1.4802     0.7954     0.1471 H            1    LIG   0.0000
  44 H            0.7954     0.1471     1.4802 H            1    LIG   0.0000
  45 H           -1.3809     0.2527     1.5703 H            1    LIG   0.0000
  46 H           -2.0102     1.7514     1.7258 H            1    LIG   0.0000
  47 H           -2.1074     0.9695     0.2955 H            1    LIG   0.0000
  48 H           -0.5833     6.4157    -2.9236 H            1    LIG   0.0000
  49 H           -1.7718     8.4367    -3.4214 H            1    LIG   0.0000
  50 H           -5.5913    10.3135    -2.1975 H            1    LIG   0.0000
  51 H           -5.3006     8.7816    -2.6828 H            1    LIG   0.0000
  52 H           -5.3854     9.1313    -1.0899 H            1    LIG   0.0000
  53 H           -3.7892    11.6371    -1.1198 H            1    LIG   0.0000
  54 H           -3.5833    10.4550    -0.0122 H            1    LIG   0.0000
  55 H           -2.3129    10.9761    -0.8960 H            1    LIG   0.0000
  56 H           -3.6603    11.1055    -3.5409 H            1    LIG   0.0000
  57 H           -2.1839    10.4445    -3.3171 H            1    LIG   0.0000
  58 H           -3.3695     9.5736    -4.0262 H            1    LIG   0.0000
  59 H           -3.7534     8.1742     0.2073 H            1    LIG   0.0000
  60 H           -2.5695     6.1529     0.7132 H            1    LIG   0.0000
  61 H           -2.9376     2.9123     0.4580 H            1    LIG   0.0000
  62 H           -3.0943     4.5350     0.3649 H            1    LIG   0.0000
  63 H           -1.3470     3.9418     6.6803 H            1    LIG   0.0000
  64 H           -0.8616     2.4983     6.0908 H            1    LIG   0.0000
  65 H            0.0678     3.8234     5.8734 H            1    LIG   0.0000
  66 H           -4.3852     5.2321     1.6341 H            1    LIG   0.0000
  67 H           -5.1105     4.9589     3.0715 H            1    LIG   0.0000
  68 H           -4.1953     6.2947     2.8595 H            1    LIG   0.0000
@<TRIPOS>BOND
   1        1        2 1
   2        2        3 1
   3        3        4 1
   4        4        5 1
   5        5        6 2
   6        6        7 1
   7        7        8 1
   8        8        9 1
   9        9       10 1
  10       10       11 1
  11       10       12 1
  12       12       13 2
  13       13       14 1
  14       14       15 2
  15       15       16 1
  16       16       17 ar
  17       17       18 ar
  18       18       19 ar
  19       19       20 1
  20       20       21 1
  21       20       22 1
  22       20       23 1
  23       19       24 ar
  24       24       25 ar
  25       25       16 ar
  26       15       26 1
  27       26       12 1
  28       26       27 1
  29       27       28 1
  30       28       29 1
  31       29       30 1
  32       30       31 1
  33       30       32 2
  34       32       33 1
  35       33       28 2
  36       33       34 1
  37        8       35 2
  38       35        5 1
  39        1       36 1
  40        1       37 1
  41        1       38 1
  42        3       39 1
  43        3       40 1
  44        4       41 1
  45        4       42 1
  46        9       43 1
  47        9       44 1
  48       11       45 1
  49       11       46 1
  50       11       47 1
  51       17       48 1
  52       18       49 1
  53       21       50 1
  54       21       51 1
  55       21       52 1
  56       22       53 1
  57       22       54 1
  58       22       55 1
  59       23       56 1
  60       23       57 1
  61       23       58 1
  62       24       59 1
  63       25       60 1
  64       27       61 1
  65       27       62 1
  66       31       63 1
  67       31       64 1
  68       31       65 1
  69       34       66 1
  70       34       67 1
  71       34       68 1

@<TRIPOS>MOLECULE

  68   71
SMALL
USER_CHARGES
@<TRIPOS>ATOM
   1 C1           1.9862     2.1088     8.2760 C.3          1    LIG   0.0000
   2 O2           2.7113     2.7955     7.2666 O.3          1    LIG   0.0000
   3 C3           2.3530     2.4238     5.9438 C.3          1    LIG   0.0000
   4 C4           3.1872     3.2169     4.9511 C.3          1    LIG   0.0000
   5 C5           2.8037     2.8192     3.5357 C.2          1    LIG   0.0000
   6 N6           3.3203     3.3017     2.4340 N.2          1    LIG   0.0000
   7 O7           2.7648     2.7409     1.4446 O.2          1    LIG   0.0000
   8 C8           1.8781     1.8781     1.8781 C.2          1    LIG   0.0000
   9 C9           1.0000     1.0000     1.0000 C.3          1    LIG   0.0000
  10 N10         -0.2538     1.7059     0.6992 N.pl3        1    LIG   0.0000
  11 C11         -1.5410     1.1233     1.1051 C.3          1    LIG   0.0000
  12 C12         -0.2221     2.9325     0.0265 C.2          1    LIG   0.0000
  13 N13          0.7621     3.3971    -0.7058 N.2          1    LIG   0.0000
  14 N14          0.4316     4.5897    -1.1683 N.2          1    LIG   0.0000
  15 C15         -0.7698     4.9093    -0.7636 C.2          1    LIG   0.0000
  16 C16         -1.4870     6.1320    -1.0675 C.ar         1    LIG   0.0000
  17 C17         -1.7626     6.4518    -2.3930 C.ar         1    LIG   0.0000
  18 C18         -2.4507     7.6262    -2.6797 C.ar         1    LIG   0.0000
  19 C19         -2.8538     8.4656    -1.6468 C.ar         1    LIG   0.0000
  20 C20         -3.6047     9.7465    -1.9688 C.3          1    LIG   0.0000
  21 C21         -2.9984    10.3923    -3.2041 C.3          1    LIG   0.0000
  22 C22         -5.0668     9.4244    -2.2314 C.3          1    LIG   0.0000
  23 C23         -3.5001    10.7044    -0.7933 C.3          1    LIG   0.0000
  24 C24         -2.5749     8.1375    -0.3235 C.ar         1    LIG   0.0000
  25 C25         -1.8874     6.9654    -0.0279 C.ar         1    LIG   0.0000
  26 N26         -1.2047     3.8751     0.0034 N.pl3        1    LIG   0.0000
  27 C27         -2.5072     3.7880     0.6767 C.3          1    LIG   0.0000
  28 C28         -3.3658     2.7371    -0.0132 C.2          1    LIG   0.0000
  29 S29         -3.9995     1.3180     0.6660 S.3          1    LIG   0.0000
  30 C30         -4.7880     0.7558    -0.7336 C.2          1    LIG   0.0000
  31 C31         -5.5919    -0.5360    -0.7842 C.3          1    LIG   0.0000
  32 N32         -4.5612     1.6287    -1.6919 N.2          1    LIG   0.0000
  33 C33         -3.7872     2.7016    -1.3141 C.2          1    LIG   0.0000
  34 C34         -3.3859     3.8225    -2.2542 C.3          1    LIG   0.0000
  35 N35          1.8678     1.8977     3.1879 N.2          1    LIG   0.0000
  36 H            2.2908     2.4207     9.1760 H            1    LIG   0.0000
  37 H            1.0096     2.2965     8.1711 H            1    LIG   0.0000
  38 H            2.1476     1.1255     8.1919 H            1    LIG   0.0000
  39 H            1.3834     2.6176     5.7942 H            1    LIG   0.0000
  40 H            2.5213     1.4466     5.8150 H            1    LIG   0.0000
  41 H            3.0188     4.1942     5.0799 H            1    LIG   0.0000
  42 H            4.1567     3.0232     5.1006 H            1    LIG   0.0000
  43 H            1.4802     0.7954     0.1471 H            1    LIG   0.0000
  44 H            0.7954     0.1471     1.4802 H            1    LIG   0.0000
  45 H           -1.3809     0.2527     1.5703 H            1    LIG   0.0000
  46 H           -2.0102     1.7514     1.7258 H            1    LIG   0.0000
  47 H           -2.1074     0.9695     0.2955 H            1    LIG   0.0000
  48 H           -1.4693     5.8444    -3.1312 H            1    LIG   0.0000
  49 H           -2.6555     7.8668    -3.6284 H            1    LIG   0.0000
  50 H           -3.4926    11.2354    -3.4161 H            1    LIG   0.0000
  51 H           -2.0365    10.6042    -3.0313 H            1    LIG   0.0000
  52 H           -3.0672     9.7621    -3.9775 H            1    LIG   0.0000
  53 H           -5.5610    10.2675    -2.4434 H            1    LIG   0.0000
  54 H           -5.1356     8.7942    -3.0048 H            1    LIG   0.0000
  55 H           -5.4656     8.9995    -1.4187 H            1    LIG   0.0000
  56 H           -3.9943    11.5475    -1.0053 H            1    LIG   0.0000
  57 H           -3.8990    10.2795     0.0194 H            1    LIG   0.0000
  58 H           -2.5382    10.9163    -0.6205 H            1    LIG   0.0000
  59 H           -2.8689     8.7446     0.4147 H            1    LIG   0.0000
  60 H           -1.6832     6.7244     0.9209 H            1    LIG   0.0000
  61 H           -2.9659     4.6754     0.6315 H            1    LIG   0.0000
  62 H           -2.3712     3.5315     1.6336 H            1    LIG   0.0000
  63 H           -5.9620    -0.6624    -1.7046 H            1    LIG   0.0000
  64 H           -4.9981    -1.3073    -0.5549 H            1    LIG   0.0000
  65 H           -6.3435    -0.4868    -0.1265 H            1    LIG   0.0000
  66 H           -2.8265     4.4879    -1.7599 H            1    LIG   0.0000
  67 H           -2.8599     3.4458    -3.0167 H            1    LIG   0.0000
  68 H           -4.2068     4.2727    -2.6057 H            1    LIG   0.0000
@<TRIPOS>BOND
   1        1        2 1
   2        2        3 1
   3        3        4 1
   4        4        5 1
   5        5        6 2
   6        6        7 1
   7        7        8 1
   8        8        9 1
   9        9       10 1
  10       10       11 1
  11       10       12 1
  12       12       13 2
  13       13       14 1
  14       14       15 2
  15       15       16 1
  16       16       17 ar
  17       17       18 ar
  18       18       19 ar
  19       19       20 1
  20       20       21 1
  21       20       22 1
  22       20       23 1
  23       19       24 ar
  24       24       25 ar
  25       25       16 ar
  26       15       26 1
  27       26       12 1
  28       26       27 1
  29       27       28 1
  30       28       29 1
  31       29       30 1
  32       30       31 1
  33       30       32 2
  34       32       33 1
  35       33       28 2
  36       33       34 1
  37        8       35 2
  38       35        5 1
  39        1       36 1
  40        1       37 1
  41        1       38 1
  42        3       39 1
  43        3       40 1
  44        4       41 1
  45        4       42 1
  46        9       43 1
  47        9       44 1
  48       11       45 1
  49       11       46 1
  50       11       47 1
  51       17       48 1
  52       18       49 1
  53       21       50 1
  54       21       51 1
  55       21       52 1
  56       22       53 1
  57       22       54 1
  58       22       55 1
  59       23       56 1
  60       23       57 1
  61       23       58 1
  62       24       59 1
  63       25       60 1
  64       27       61 1
  65       27       62 1
  66       31       63 1
  67       31       64 1
  68       31       65 1
  69       34       66 1
  70       34       67 1
  71       34       68 1

@<TRIPOS>MOLECULE

  68   71
SMALL
USER_CHARGES
@<TRIPOS>ATOM
   1 C1           1.9862     2.1088     8.2760 C.3          1    LIG   0.0000
   2 O2           2.7113     2.7955     7.2666 O.3          1    LIG   0.0000
   3 C3           2.3530     2.4238     5.9438 C.3          1    LIG   0.0000
   4 C4           3.1872     3.2169     4.9511 C.3          1    LIG   0.0000
   5 C5           2.8037     2.8192     3.5357 C.2          1    LIG   0.0000
   6 N6           3.3203     3.3017     2.4340 N.2          1    LIG   0.0000
   7 O7           2.7648     2.7409     1.4446 O.2          1    LIG   0.0000
   8 C8           1.8781     1.8781     1.8781 C.2          1    LIG   0.0000
   9 C9           1.0000     1.0000     1.0000 C.3          1    LIG   0.0000
  10 N10         -0.2538     1.7059     0.6992 N.pl3        1    LIG   0.0000
  11 C11         -1.2471     1.9245     1.7606 C.3          1    LIG   0.0000
  12 C12         -0.5019     2.1698    -0.5974 C.2          1    LIG   0.0000
  13 N13         -0.1816     3.3463    -1.0812 N.2          1    LIG   0.0000
  14 N14         -0.5877     3.4232    -2.3361 N.2          1    LIG   0.0000
  15 C15         -1.1568     2.3012    -2.6917 C.2          1    LIG   0.0000
  16 C16         -1.7223     1.9931    -3.9905 C.ar         1    LIG   0.0000
  17 C17         -1.1878     2.5892    -5.1280 C.ar         1    LIG   0.0000
  18 C18         -1.7339     2.2906    -6.3720 C.ar         1    LIG   0.0000
  19 C19         -2.8027     1.4060    -6.4679 C.ar         1    LIG   0.0000
  20 C20         -3.3933     1.0858    -7.8306 C.3          1    LIG   0.0000
  21 C21         -3.9092     2.3635    -8.4721 C.3          1    LIG   0.0000
  22 C22         -2.3212     0.4714    -8.7158 C.3          1    LIG   0.0000
  23 C23         -4.5404     0.1020    -7.6671 C.3          1    LIG   0.0000
  24 C24         -3.3306     0.8133    -5.3250 C.ar         1    LIG   0.0000
  25 C25         -2.7908     1.1061    -4.0773 C.ar         1    LIG   0.0000
  26 N26         -1.1211     1.4899    -1.6019 N.pl3        1    LIG   0.0000
  27 C27         -1.6474     0.1207    -1.5275 C.3          1    LIG   0.0000
  28 C28         -0.5423    -0.8238    -1.0755 C.2          1    LIG   0.0000
  29 S29         -0.5173    -1.7846     0.3220 S.3          1    LIG   0.0000
  30 C30          1.0123    -2.4842     0.0618 C.2          1    LIG   0.0000
  31 C31          1.6445    -3.4980     1.0053 C.3          1    LIG   0.0000
  32 N32          1.4887    -1.9857    -1.0589 N.2          1    LIG   0.0000
  33 C33          0.6579    -1.0813    -1.6791 C.2          1    LIG   0.0000
  34 C34          1.0047    -0.3696    -2.9731 C.3          1    LIG   0.0000
  35 N35          1.8678     1.8977     3.1879 N.2          1    LIG   0.0000
  36 H            2.2908     2.4207     9.1760 H            1    LIG   0.0000
  37 H            1.0096     2.2965     8.1711 H            1    LIG   0.0000
  38 H            2.1476     1.1255     8.1919 H            1    LIG   0.0000
  39 H            1.3834     2.6176     5.7942 H            1    LIG   0.0000
  40 H            2.5213     1.4466     5.8150 H            1    LIG   0.0000
  41 H            3.0188     4.1942     5.0799 H            1    LIG   0.0000
  42 H            4.1567     3.0232     5.1006 H            1    LIG   0.0000
  43 H            1.4802     0.7954     0.1471 H            1    LIG   0.0000
  44 H            0.7954     0.1471     1.4802 H            1    LIG   0.0000
  45 H           -0.9116     1.5322     2.6170 H            1    LIG   0.0000
  46 H           -1.3971     2.9060     1.8797 H            1    LIG   0.0000
  47 H           -2.1083     1.4840     1.5070 H            1    LIG   0.0000
  48 H           -0.4197     3.2250    -5.0523 H            1    LIG   0.0000
  49 H           -1.3580     2.7121    -7.1973 H            1    LIG   0.0000
  50 H           -4.2980     2.1528    -9.3690 H            1    LIG   0.0000
  51 H           -4.6145     2.7677    -7.8897 H            1    LIG   0.0000
  52 H           -3.1546     3.0108    -8.5797 H            1    LIG   0.0000
  53 H           -2.7100     0.2607    -9.6127 H            1    LIG   0.0000
  54 H           -1.5666     1.1187    -8.8234 H            1    LIG   0.0000
  55 H           -1.9818    -0.3692    -8.2938 H            1    LIG   0.0000
  56 H           -4.9292    -0.1088    -8.5640 H            1    LIG   0.0000
  57 H           -4.2010    -0.7386    -7.2450 H            1    LIG   0.0000
  58 H           -5.2457     0.5062    -7.0847 H            1    LIG   0.0000
  59 H           -4.0981     0.1768    -5.4008 H            1    LIG   0.0000
  60 H           -3.1661     0.6841    -3.2521 H            1    LIG   0.0000
  61 H           -1.9770    -0.1591    -2.4291 H            1    LIG   0.0000
  62 H           -2.4019     0.0888    -0.8720 H            1    LIG   0.0000
  63 H            2.5399    -3.7689     0.6519 H            1    LIG   0.0000
  64 H            1.7537    -3.0878     1.9107 H            1    LIG   0.0000
  65 H            1.0553    -4.3031     1.0729 H            1    LIG   0.0000
  66 H            0.2528     0.2367    -3.2319 H            1    LIG   0.0000
  67 H            1.8377     0.1685    -2.8446 H            1    LIG   0.0000
  68 H            1.1523    -1.0449    -3.6957 H            1    LIG   0.0000
@<TRIPOS>BOND
   1        1        2 1
   2        2        3 1
   3        3        4 1
   4        4        5 1
   5        5        6 2
   6        6        7 1
   7        7        8 1
   8        8        9 1
   9        9       10 1
  10       10       11 1
  11       10       12 1
  12       12       13 2
  13       13       14 1
  14       14       15 2
  15       15       16 1
  16       16       17 ar
  17       17       18 ar
  18       18       19 ar
  19       19       20 1
  20       20       21 1
  21       20       22 1
  22       20       23 1
  23       19       24 ar
  24       24       25 ar
  25       25       16 ar
  26       15       26 1
  27       26       12 1
  28       26       27 1
  29       27       28 1
  30       28       29 1
  31       29       30 1
  32       30       31 1
  33       30       32 2
  34       32       33 1
  35       33       28 2
  36       33       34 1
  37        8       35 2
  38       35        5 1
  39        1       36 1
  40        1       37 1
  41        1       38 1
  42        3       39 1
  43        3       40 1
  44        4       41 1
  45        4       42 1
  46        9       43 1
  47        9       44 1
  48       11       45 1
  49       11       46 1
  50       11       47 1
  51       17       48 1
  52       18       49 1
  53       21       50 1
  54       21       51 1
  55       21       52 1
  56       22       53 1
  57       22       54 1
  58       22       55 1
  59       23       56 1
  60       23       57 1
  61       23       58 1
  62       24       59 1
  63       25       60 1
  64       27       61 1
  65       27       62 1
  66       31       63 1
  67       31       64 1
  68       31       65 1
  69       34       66 1
  70       34       67 1
  71       34       68 1

@<TRIPOS>MOLECULE

  68   71
SMALL
USER_CHARGES
@<TRIPOS>ATOM
   1 C1           1.9862     2.1088     8.2760 C.3          1    LIG   0.0000
   2 O2           2.7113     2.7955     7.2666 O.3          1    LIG   0.0000
   3 C3           2.3530     2.4238     5.9438 C.3          1    LIG   0.0000
   4 C4           3.1872     3.2169     4.9511 C.3          1    LIG   0.0000
   5 C5           2.8037     2.8192     3.5357 C.2          1    LIG   0.0000
   6 N6           3.3203     3.3017     2.4340 N.2          1    LIG   0.0000
   7 O7           2.7648     2.7409     1.4446 O.2          1    LIG   0.0000
   8 C8           1.8781     1.8781     1.8781 C.2          1    LIG   0.0000
   9 C9           1.0000     1.0000     1.0000 C.3          1    LIG   0.0000
  10 N10         -0.2538     1.7059     0.6992 N.pl3        1    LIG   0.0000
  11 C11         -1.2471     1.9245     1.7606 C.3          1    LIG   0.0000
  12 C12         -0.5019     2.1698    -0.5974 C.2          1    LIG   0.0000
  13 N13         -0.1816     3.3463    -1.0812 N.2          1    LIG   0.0000
  14 N14         -0.5877     3.4232    -2.3361 N.2          1    LIG   0.0000
  15 C15         -1.1568     2.3012    -2.6917 C.2          1    LIG   0.0000
  16 C16         -1.7223     1.9931    -3.9905 C.ar         1    LIG   0.0000
  17 C17         -1.1878     2.5892    -5.1280 C.ar         1    LIG   0.0000
  18 C18         -1.7339     2.2906    -6.3720 C.ar         1    LIG   0.0000
  19 C19         -2.8027     1.4060    -6.4679 C.ar         1    LIG   0.0000
  20 C20         -3.3933     1.0858    -7.8306 C.3          1    LIG   0.0000
  21 C21         -3.2714    -0.4056    -8.0979 C.3          1    LIG   0.0000
  22 C22         -4.8593     1.4865    -7.8542 C.3          1    LIG   0.0000
  23 C23         -2.6402     1.8560    -8.9029 C.3          1    LIG   0.0000
  24 C24         -3.3306     0.8133    -5.3250 C.ar         1    LIG   0.0000
  25 C25         -2.7908     1.1061    -4.0773 C.ar         1    LIG   0.0000
  26 N26         -1.1211     1.4899    -1.6019 N.pl3        1    LIG   0.0000
  27 C27         -1.6474     0.1207    -1.5275 C.3          1    LIG   0.0000
  28 C28         -1.0381    -0.7184    -2.6421 C.2          1    LIG   0.0000
  29 S29         -1.8594    -1.5420    -3.8767 S.3          1    LIG   0.0000
  30 C30         -0.4835    -2.1915    -4.6395 C.2          1    LIG   0.0000
  31 C31         -0.5464    -3.0667    -5.8835 C.3          1    LIG   0.0000
  32 N32          0.5699    -1.7936    -3.9587 N.2          1    LIG   0.0000
  33 C33          0.2803    -1.0010    -2.8720 C.2          1    LIG   0.0000
  34 C34          1.3332    -0.4395    -1.9353 C.3          1    LIG   0.0000
  35 N35          1.8678     1.8977     3.1879 N.2          1    LIG   0.0000
  36 H            2.2908     2.4207     9.1760 H            1    LIG   0.0000
  37 H            1.0096     2.2965     8.1711 H            1    LIG   0.0000
  38 H            2.1476     1.1255     8.1919 H            1    LIG   0.0000
  39 H            1.3834     2.6176     5.7942 H            1    LIG   0.0000
  40 H            2.5213     1.4466     5.8150 H            1    LIG   0.0000
  41 H            3.0188     4.1942     5.0799 H            1    LIG   0.0000
  42 H            4.1567     3.0232     5.1006 H            1    LIG   0.0000
  43 H            1.4802     0.7954     0.1471 H            1    LIG   0.0000
  44 H            0.7954     0.1471     1.4802 H            1    LIG   0.0000
  45 H           -0.9116     1.5322     2.6170 H            1    LIG   0.0000
  46 H           -1.3971     2.9060     1.8797 H            1    LIG   0.0000
  47 H           -2.1083     1.4840     1.5070 H            1    LIG   0.0000
  48 H           -0.4197     3.2250    -5.0523 H            1    LIG   0.0000
  49 H           -1.3580     2.7121    -7.1973 H            1    LIG   0.0000
  50 H           -3.6601    -0.6163    -8.9948 H            1    LIG   0.0000
  51 H           -2.3069    -0.6692    -8.0824 H            1    LIG   0.0000
  52 H           -3.7668    -0.9123    -7.3924 H            1    LIG   0.0000
  53 H           -5.2481     1.2758    -8.7511 H            1    LIG   0.0000
  54 H           -5.3548     0.9798    -7.1487 H            1    LIG   0.0000
  55 H           -4.9396     2.4677    -7.6783 H            1    LIG   0.0000
  56 H           -3.0289     1.6452    -9.7999 H            1    LIG   0.0000
  57 H           -2.7204     2.8371    -8.7271 H            1    LIG   0.0000
  58 H           -1.6757     1.5923    -8.8874 H            1    LIG   0.0000
  59 H           -4.0981     0.1768    -5.4008 H            1    LIG   0.0000
  60 H           -3.1661     0.6841    -3.2521 H            1    LIG   0.0000
  61 H           -2.6419     0.1399    -1.6302 H            1    LIG   0.0000
  62 H           -1.4114    -0.2794    -0.6419 H            1    LIG   0.0000
  63 H            0.3798    -3.3309    -6.1524 H            1    LIG   0.0000
  64 H           -1.0833    -3.8872    -5.6870 H            1    LIG   0.0000
  65 H           -0.9771    -2.5570    -6.6282 H            1    LIG   0.0000
  66 H            0.8896     0.1039    -1.2226 H            1    LIG   0.0000
  67 H            1.8398    -1.1918    -1.5140 H            1    LIG   0.0000
  68 H            1.9642     0.1393    -2.4517 H            1    LIG   0.0000
@<TRIPOS>BOND
   1        1        2 1
   2        2        3 1
   3        3        4 1
   4        4        5 1
   5        5        6 2
   6        6        7 1
   7        7        8 1
   8        8        9 1
   9        9       10 1
  10       10       11 1
  11       10       12 1
  12       12       13 2
  13       13       14 1
  14       14       15 2
  15       15       16 1
  16       16       17 ar
  17       17       18 ar
  18       18       19 ar
  19       19       20 1
  20       20       21 1
  21       20       22 1
  22       20       23 1
  23       19       24 ar
  24       24       25 ar
  25       25       16 ar
  26       15       26 1
  27       26       12 1
  28       26       27 1
  29       27       28 1
  30       28       29 1
  31       29       30 1
  32       30       31 1
  33       30       32 2
  34       32       33 1
  35       33       28 2
  36       33       34 1
  37        8       35 2
  38       35        5 1
  39        1       36 1
  40        1       37 1
  41        1       38 1
  42        3       39 1
  43        3       40 1
  44        4       41 1
  45        4       42 1
  46        9       43 1
  47        9       44 1
  48       11       45 1
  49       11       46 1
  50       11       47 1
  51       17       48 1
  52       18       49 1
  53       21       50 1
  54       21       51 1
  55       21       52 1
  56       22       53 1
  57       22       54 1
  58       22       55 1
  59       23       56 1
  60       23       57 1
  61       23       58 1
  62       24       59 1
  63       25       60 1
  64       27       61 1
  65       27       62 1
  66       31       63 1
  67       31       64 1
  68       31       65 1
  69       34       66 1
  70       34       67 1
  71       34       68 1

