@<TRIPOS>MOLECULE
*****
 68 71 0 0 0
SMALL
USER_CHARGES

@<TRIPOS>ATOM
      1 C1          1.9862    2.1088    8.2760 C.3     1  LIG1        0.0000
      2 O2          2.7113    2.7955    7.2666 O.3     1  LIG1        0.0000
      3 C3          2.3530    2.4238    5.9438 C.3     1  LIG1        0.0000
      4 C4          3.1872    3.2169    4.9511 C.3     1  LIG1        0.0000
      5 C5          2.8037    2.8192    3.5357 C.2     1  LIG1        0.0000
      6 N6          3.3203    3.3017    2.4340 N.2     1  LIG1        0.0000
      7 O7          2.7648    2.7409    1.4446 O.2     1  LIG1        0.0000
      8 C8          1.8781    1.8781    1.8781 C.2     1  LIG1        0.0000
      9 C9          1.0000    1.0000    1.0000 C.3     1  LIG1        0.0000
     10 N10        -0.2538    1.7059    0.6992 N.pl3   1  LIG1        0.0000
     11 C11        -1.2471    1.9245    1.7606 C.3     1  LIG1        0.0000
     12 C12        -0.5019    2.1698   -0.5974 C.2     1  LIG1        0.0000
     13 N13        -0.1816    3.3463   -1.0812 N.2     1  LIG1        0.0000
     14 N14        -0.5877    3.4232   -2.3361 N.2     1  LIG1        0.0000
     15 C15        -1.1568    2.3012   -2.6917 C.2     1  LIG1        0.0000
     16 C16        -1.7223    1.9931   -3.9905 C.ar    1  LIG1        0.0000
     17 C17        -1.1878    2.5892   -5.1280 C.ar    1  LIG1        0.0000
     18 C18        -1.7339    2.2906   -6.3720 C.ar    1  LIG1        0.0000
     19 C19        -2.8027    1.4060   -6.4679 C.ar    1  LIG1        0.0000
     20 C20        -3.3933    1.0858   -7.8306 C.3     1  LIG1        0.0000
     21 C21        -3.9092    2.3635   -8.4721 C.3     1  LIG1        0.0000
     22 C22        -2.3212    0.4714   -8.7158 C.3     1  LIG1        0.0000
     23 C23        -4.5404    0.1020   -7.6671 C.3     1  LIG1        0.0000
     24 C24        -3.3306    0.8133   -5.3250 C.ar    1  LIG1        0.0000
     25 C25        -2.7908    1.1061   -4.0773 C.ar    1  LIG1        0.0000
     26 N26        -1.1211    1.4899   -1.6019 N.pl3   1  LIG1        0.0000
     27 C27        -1.6474    0.1207   -1.5275 C.3     1  LIG1        0.0000
     28 C28        -0.5423   -0.8238   -1.0755 C.2     1  LIG1        0.0000
     29 S29        -0.5173   -1.7846    0.3220 S.3     1  LIG1        0.0000
     30 C30         1.0123   -2.4842    0.0618 C.2     1  LIG1        0.0000
     31 C31         1.6445   -3.4980    1.0053 C.3     1  LIG1        0.0000
     32 N32         1.4887   -1.9857   -1.0589 N.2     1  LIG1        0.0000
     33 C33         0.6579   -1.0813   -1.6791 C.2     1  LIG1        0.0000
     34 C34         1.0047   -0.3696   -2.9731 C.3     1  LIG1        0.0000
     35 N35         1.8678    1.8977    3.1879 N.2     1  LIG1        0.0000
     36 H           2.2908    2.4207    9.1760 H       1  LIG1        0.0000
     37 H           1.0096    2.2965    8.1711 H       1  LIG1        0.0000
     38 H           2.1476    1.1255    8.1919 H       1  LIG1        0.0000
     39 H           1.3834    2.6176    5.7942 H       1  LIG1        0.0000
     40 H           2.5213    1.4466    5.8150 H       1  LIG1        0.0000
     41 H           3.0188    4.1942    5.0799 H       1  LIG1        0.0000
     42 H           4.1567    3.0232    5.1006 H       1  LIG1        0.0000
     43 H           1.4802    0.7954    0.1471 H       1  LIG1        0.0000
     44 H           0.7954    0.1471    1.4802 H       1  LIG1        0.0000
     45 H          -0.9116    1.5322    2.6170 H       1  LIG1        0.0000
     46 H          -1.3971    2.9060    1.8797 H       1  LIG1        0.0000
     47 H          -2.1083    1.4840    1.5070 H       1  LIG1        0.0000
     48 H          -0.4197    3.2250   -5.0523 H       1  LIG1        0.0000
     49 H          -1.3580    2.7121   -7.1973 H       1  LIG1        0.0000
     50 H          -4.2980    2.1528   -9.3690 H       1  LIG1        0.0000
     51 H          -4.6145    2.7677   -7.8897 H       1  LIG1        0.0000
     52 H          -3.1546    3.0108   -8.5797 H       1  LIG1        0.0000
     53 H          -2.7100    0.2607   -9.6127 H       1  LIG1        0.0000
     54 H          -1.5666    1.1187   -8.8234 H       1  LIG1        0.0000
     55 H          -1.9818   -0.3692   -8.2938 H       1  LIG1        0.0000
     56 H          -4.9292   -0.1088   -8.5640 H       1  LIG1        0.0000
     57 H          -4.2010   -0.7386   -7.2450 H       1  LIG1        0.0000
     58 H          -5.2457    0.5062   -7.0847 H       1  LIG1        0.0000
     59 H          -4.0981    0.1768   -5.4008 H       1  LIG1        0.0000
     60 H          -3.1661    0.6841   -3.2521 H       1  LIG1        0.0000
     61 H          -1.9770   -0.1591   -2.4291 H       1  LIG1        0.0000
     62 H          -2.4019    0.0888   -0.8720 H       1  LIG1        0.0000
     63 H           2.5399   -3.7689    0.6519 H       1  LIG1        0.0000
     64 H           1.7537   -3.0878    1.9107 H       1  LIG1        0.0000
     65 H           1.0553   -4.3031    1.0729 H       1  LIG1        0.0000
     66 H           0.2528    0.2367   -3.2319 H       1  LIG1        0.0000
     67 H           1.8377    0.1685   -2.8446 H       1  LIG1        0.0000
     68 H           1.1523   -1.0449   -3.6957 H       1  LIG1        0.0000
@<TRIPOS>BOND
     1     1     2    1
     2     2     3    1
     3     3     4    1
     4     4     5    1
     5     5     6    2
     6     6     7    1
     7     7     8    1
     8     8     9    1
     9     9    10    1
    10    10    11    1
    11    10    12    1
    12    12    13    2
    13    13    14    1
    14    14    15    2
    15    15    16    1
    16    16    17   ar
    17    17    18   ar
    18    18    19   ar
    19    19    20    1
    20    20    21    1
    21    20    22    1
    22    20    23    1
    23    19    24   ar
    24    24    25   ar
    25    25    16   ar
    26    15    26    1
    27    26    12    1
    28    26    27    1
    29    27    28    1
    30    28    29    1
    31    29    30    1
    32    30    31    1
    33    30    32    2
    34    32    33    1
    35    33    28    2
    36    33    34    1
    37     8    35    2
    38    35     5    1
    39     1    36    1
    40     1    37    1
    41     1    38    1
    42     3    39    1
    43     3    40    1
    44     4    41    1
    45     4    42    1
    46     9    43    1
    47     9    44    1
    48    11    45    1
    49    11    46    1
    50    11    47    1
    51    17    48    1
    52    18    49    1
    53    21    50    1
    54    21    51    1
    55    21    52    1
    56    22    53    1
    57    22    54    1
    58    22    55    1
    59    23    56    1
    60    23    57    1
    61    23    58    1
    62    24    59    1
    63    25    60    1
    64    27    61    1
    65    27    62    1
    66    31    63    1
    67    31    64    1
    68    31    65    1
    69    34    66    1
    70    34    67    1
    71    34    68    1
