@<TRIPOS>MOLECULE
*****
 68 71 0 0 0
SMALL
USER_CHARGES

@<TRIPOS>ATOM
      1 C1          1.9862    2.1088    8.2760 C.3     1  LIG1        0.0000
      2 O2          2.7113    2.7955    7.2666 O.3     1  LIG1        0.0000
      3 C3          2.3530    2.4238    5.9438 C.3     1  LIG1        0.0000
      4 C4          3.1872    3.2169    4.9511 C.3     1  LIG1        0.0000
      5 C5          2.8037    2.8192    3.5357 C.2     1  LIG1        0.0000
      6 N6          3.3203    3.3017    2.4340 N.2     1  LIG1        0.0000
      7 O7          2.7648    2.7409    1.4446 O.2     1  LIG1        0.0000
      8 C8          1.8781    1.8781    1.8781 C.2     1  LIG1        0.0000
      9 C9          1.0000    1.0000    1.0000 C.3     1  LIG1        0.0000
     10 N10        -0.2538    1.7059    0.6992 N.pl3   1  LIG1        0.0000
     11 C11        -1.5410    1.1233    1.1051 C.3     1  LIG1        0.0000
     12 C12        -0.2221    2.9325    0.0265 C.2     1  LIG1        0.0000
     13 N13         0.7621    3.3971   -0.7058 N.2     1  LIG1        0.0000
     14 N14         0.4316    4.5897   -1.1683 N.2     1  LIG1        0.0000
     15 C15        -0.7698    4.9093   -0.7636 C.2     1  LIG1        0.0000
     16 C16        -1.4870    6.1320   -1.0675 C.ar    1  LIG1        0.0000
     17 C17        -1.2455    6.7852   -2.2717 C.ar    1  LIG1        0.0000
     18 C18        -1.9359    7.9582   -2.5588 C.ar    1  LIG1        0.0000
     19 C19        -2.8544    8.4655   -1.6460 C.ar    1  LIG1        0.0000
     20 C20        -3.6038    9.7474   -1.9674 C.3     1  LIG1        0.0000
     21 C21        -5.0981    9.4697   -1.9860 C.3     1  LIG1        0.0000
     22 C22        -3.2960   10.7933   -0.9083 C.3     1  LIG1        0.0000
     23 C23        -3.1670   10.2618   -3.3294 C.3     1  LIG1        0.0000
     24 C24        -3.0906    7.8051   -0.4442 C.ar    1  LIG1        0.0000
     25 C25        -2.4048    6.6318   -0.1491 C.ar    1  LIG1        0.0000
     26 N26        -1.2047    3.8751    0.0034 N.pl3   1  LIG1        0.0000
     27 C27        -2.5072    3.7880    0.6767 C.3     1  LIG1        0.0000
     28 C28        -2.3081    3.8935    2.1823 C.2     1  LIG1        0.0000
     29 S29        -1.0858    3.1731    3.1119 S.3     1  LIG1        0.0000
     30 C30        -1.5934    3.7766    4.6201 C.2     1  LIG1        0.0000
     31 C31        -0.8717    3.4850    5.9284 C.3     1  LIG1        0.0000
     32 N32        -2.6729    4.5000    4.4127 N.2     1  LIG1        0.0000
     33 C33        -3.0717    4.5645    3.0975 C.2     1  LIG1        0.0000
     34 C34        -4.2949    5.3276    2.6254 C.3     1  LIG1        0.0000
     35 N35         1.8678    1.8977    3.1879 N.2     1  LIG1        0.0000
     36 H           2.2908    2.4207    9.1760 H       1  LIG1        0.0000
     37 H           1.0096    2.2965    8.1711 H       1  LIG1        0.0000
     38 H           2.1476    1.1255    8.1919 H       1  LIG1        0.0000
     39 H           1.3834    2.6176    5.7942 H       1  LIG1        0.0000
     40 H           2.5213    1.4466    5.8150 H       1  LIG1        0.0000
     41 H           3.0188    4.1942    5.0799 H       1  LIG1        0.0000
     42 H           4.1567    3.0232    5.1006 H       1  LIG1        0.0000
     43 H           1.4802    0.7954    0.1471 H       1  LIG1        0.0000
     44 H           0.7954    0.1471    1.4802 H       1  LIG1        0.0000
     45 H          -1.3809    0.2527    1.5703 H       1  LIG1        0.0000
     46 H          -2.0102    1.7514    1.7258 H       1  LIG1        0.0000
     47 H          -2.1074    0.9695    0.2955 H       1  LIG1        0.0000
     48 H          -0.5833    6.4157   -2.9236 H       1  LIG1        0.0000
     49 H          -1.7718    8.4367   -3.4214 H       1  LIG1        0.0000
     50 H          -5.5913   10.3135   -2.1975 H       1  LIG1        0.0000
     51 H          -5.3006    8.7816   -2.6828 H       1  LIG1        0.0000
     52 H          -5.3854    9.1313   -1.0899 H       1  LIG1        0.0000
     53 H          -3.7892   11.6371   -1.1198 H       1  LIG1        0.0000
     54 H          -3.5833   10.4550   -0.0122 H       1  LIG1        0.0000
     55 H          -2.3129   10.9761   -0.8960 H       1  LIG1        0.0000
     56 H          -3.6603   11.1055   -3.5409 H       1  LIG1        0.0000
     57 H          -2.1839   10.4445   -3.3171 H       1  LIG1        0.0000
     58 H          -3.3695    9.5736   -4.0262 H       1  LIG1        0.0000
     59 H          -3.7534    8.1742    0.2073 H       1  LIG1        0.0000
     60 H          -2.5695    6.1529    0.7132 H       1  LIG1        0.0000
     61 H          -2.9376    2.9123    0.4580 H       1  LIG1        0.0000
     62 H          -3.0943    4.5350    0.3649 H       1  LIG1        0.0000
     63 H          -1.3470    3.9418    6.6803 H       1  LIG1        0.0000
     64 H          -0.8616    2.4983    6.0908 H       1  LIG1        0.0000
     65 H           0.0678    3.8234    5.8734 H       1  LIG1        0.0000
     66 H          -4.3852    5.2321    1.6341 H       1  LIG1        0.0000
     67 H          -5.1105    4.9589    3.0715 H       1  LIG1        0.0000
     68 H          -4.1953    6.2947    2.8595 H       1  LIG1        0.0000
@<TRIPOS>BOND
     1     1     2    1
     2     2     3    1
     3     3     4    1
     4     4     5    1
     5     5     6    2
     6     6     7    1
     7     7     8    1
     8     8     9    1
     9     9    10    1
    10    10    11    1
    11    10    12    1
    12    12    13    2
    13    13    14    1
    14    14    15    2
    15    15    16    1
    16    16    17   ar
    17    17    18   ar
    18    18    19   ar
    19    19    20    1
    20    20    21    1
    21    20    22    1
    22    20    23    1
    23    19    24   ar
    24    24    25   ar
    25    25    16   ar
    26    15    26    1
    27    26    12    1
    28    26    27    1
    29    27    28    1
    30    28    29    1
    31    29    30    1
    32    30    31    1
    33    30    32    2
    34    32    33    1
    35    33    28    2
    36    33    34    1
    37     8    35    2
    38    35     5    1
    39     1    36    1
    40     1    37    1
    41     1    38    1
    42     3    39    1
    43     3    40    1
    44     4    41    1
    45     4    42    1
    46     9    43    1
    47     9    44    1
    48    11    45    1
    49    11    46    1
    50    11    47    1
    51    17    48    1
    52    18    49    1
    53    21    50    1
    54    21    51    1
    55    21    52    1
    56    22    53    1
    57    22    54    1
    58    22    55    1
    59    23    56    1
    60    23    57    1
    61    23    58    1
    62    24    59    1
    63    25    60    1
    64    27    61    1
    65    27    62    1
    66    31    63    1
    67    31    64    1
    68    31    65    1
    69    34    66    1
    70    34    67    1
    71    34    68    1
