@<TRIPOS>MOLECULE
*****
 68 71 0 0 0
SMALL
USER_CHARGES

@<TRIPOS>ATOM
      1 C1          1.9862    2.1088    8.2760 C.3     1  LIG1        0.0000
      2 O2          2.7113    2.7955    7.2666 O.3     1  LIG1        0.0000
      3 C3          2.3530    2.4238    5.9438 C.3     1  LIG1        0.0000
      4 C4          3.1872    3.2169    4.9511 C.3     1  LIG1        0.0000
      5 C5          2.8037    2.8192    3.5357 C.2     1  LIG1        0.0000
      6 N6          3.3203    3.3017    2.4340 N.2     1  LIG1        0.0000
      7 O7          2.7648    2.7409    1.4446 O.2     1  LIG1        0.0000
      8 C8          1.8781    1.8781    1.8781 C.2     1  LIG1        0.0000
      9 C9          1.0000    1.0000    1.0000 C.3     1  LIG1        0.0000
     10 N10        -0.2538    1.7059    0.6992 N.pl3   1  LIG1        0.0000
     11 C11        -1.3378    1.7340    1.6917 C.3     1  LIG1        0.0000
     12 C12        -0.4155    2.3511   -0.5319 C.2     1  LIG1        0.0000
     13 N13        -1.5514    2.6945   -1.0911 N.2     1  LIG1        0.0000
     14 N14        -1.3041    3.2718   -2.2535 N.2     1  LIG1        0.0000
     15 C15        -0.0143    3.3299   -2.4589 C.2     1  LIG1        0.0000
     16 C16         0.6518    3.8977   -3.6146 C.ar    1  LIG1        0.0000
     17 C17         0.0546    4.9512   -4.2990 C.ar    1  LIG1        0.0000
     18 C18         0.6974    5.4926   -5.4074 C.ar    1  LIG1        0.0000
     19 C19         1.9223    4.9795   -5.8202 C.ar    1  LIG1        0.0000
     20 C20         2.6173    5.5765   -7.0321 C.3     1  LIG1        0.0000
     21 C21         1.7226    5.4305   -8.2523 C.3     1  LIG1        0.0000
     22 C22         2.8963    7.0495   -6.7817 C.3     1  LIG1        0.0000
     23 C23         3.9283    4.8466   -7.2750 C.3     1  LIG1        0.0000
     24 C24         2.5132    3.9261   -5.1290 C.ar    1  LIG1        0.0000
     25 C25         1.8775    3.3789   -4.0198 C.ar    1  LIG1        0.0000
     26 N26         0.5730    2.7449   -1.3818 N.pl3   1  LIG1        0.0000
     27 C27         2.0169    2.5787   -1.1702 C.3     1  LIG1        0.0000
     28 C28         2.7059    3.9313   -1.2869 C.2     1  LIG1        0.0000
     29 S29         3.9323    4.3713   -2.3728 S.3     1  LIG1        0.0000
     30 C30         4.1137    5.9765   -1.8368 C.2     1  LIG1        0.0000
     31 C31         5.1046    6.9590   -2.4451 C.3     1  LIG1        0.0000
     32 N32         3.2640    6.1611   -0.8491 N.2     1  LIG1        0.0000
     33 C33         2.5017    5.0585   -0.5394 C.2     1  LIG1        0.0000
     34 C34         1.4683    5.0345    0.5710 C.3     1  LIG1        0.0000
     35 N35         1.8678    1.8977    3.1879 N.2     1  LIG1        0.0000
     36 H           2.2908    2.4207    9.1760 H       1  LIG1        0.0000
     37 H           1.0096    2.2965    8.1711 H       1  LIG1        0.0000
     38 H           2.1476    1.1255    8.1919 H       1  LIG1        0.0000
     39 H           1.3834    2.6176    5.7942 H       1  LIG1        0.0000
     40 H           2.5213    1.4466    5.8150 H       1  LIG1        0.0000
     41 H           3.0188    4.1942    5.0799 H       1  LIG1        0.0000
     42 H           4.1567    3.0232    5.1006 H       1  LIG1        0.0000
     43 H           1.4802    0.7954    0.1471 H       1  LIG1        0.0000
     44 H           0.7954    0.1471    1.4802 H       1  LIG1        0.0000
     45 H          -1.0564    1.2280    2.5071 H       1  LIG1        0.0000
     46 H          -1.5378    2.6818    1.9401 H       1  LIG1        0.0000
     47 H          -2.1566    1.3114    1.3032 H       1  LIG1        0.0000
     48 H          -0.8267    5.3152   -3.9976 H       1  LIG1        0.0000
     49 H           0.2787    6.2506   -5.9075 H       1  LIG1        0.0000
     50 H           2.1801    5.8235   -9.0500 H       1  LIG1        0.0000
     51 H           1.5391    4.4614   -8.4170 H       1  LIG1        0.0000
     52 H           0.8601    5.9107   -8.0925 H       1  LIG1        0.0000
     53 H           3.3538    7.4424   -7.5794 H       1  LIG1        0.0000
     54 H           2.0338    7.5297   -6.6219 H       1  LIG1        0.0000
     55 H           3.4849    7.1455   -5.9790 H       1  LIG1        0.0000
     56 H           4.3858    5.2396   -8.0727 H       1  LIG1        0.0000
     57 H           4.5169    4.9426   -6.4723 H       1  LIG1        0.0000
     58 H           3.7448    3.8775   -7.4398 H       1  LIG1        0.0000
     59 H           3.3948    3.5627   -5.4300 H       1  LIG1        0.0000
     60 H           2.2965    2.6213   -3.5193 H       1  LIG1        0.0000
     61 H           2.3855    1.9563   -1.8607 H       1  LIG1        0.0000
     62 H           2.1788    2.1996   -0.2592 H       1  LIG1        0.0000
     63 H           5.0356    7.8377   -1.9726 H       1  LIG1        0.0000
     64 H           6.0328    6.6000   -2.3472 H       1  LIG1        0.0000
     65 H           4.8965    7.0849   -3.4151 H       1  LIG1        0.0000
     66 H           1.0417    4.1310    0.6099 H       1  LIG1        0.0000
     67 H           1.9133    5.2310    1.4447 H       1  LIG1        0.0000
     68 H           0.7688    5.7259    0.3903 H       1  LIG1        0.0000
@<TRIPOS>BOND
     1     1     2    1
     2     2     3    1
     3     3     4    1
     4     4     5    1
     5     5     6    2
     6     6     7    1
     7     7     8    1
     8     8     9    1
     9     9    10    1
    10    10    11    1
    11    10    12    1
    12    12    13    2
    13    13    14    1
    14    14    15    2
    15    15    16    1
    16    16    17   ar
    17    17    18   ar
    18    18    19   ar
    19    19    20    1
    20    20    21    1
    21    20    22    1
    22    20    23    1
    23    19    24   ar
    24    24    25   ar
    25    25    16   ar
    26    15    26    1
    27    26    12    1
    28    26    27    1
    29    27    28    1
    30    28    29    1
    31    29    30    1
    32    30    31    1
    33    30    32    2
    34    32    33    1
    35    33    28    2
    36    33    34    1
    37     8    35    2
    38    35     5    1
    39     1    36    1
    40     1    37    1
    41     1    38    1
    42     3    39    1
    43     3    40    1
    44     4    41    1
    45     4    42    1
    46     9    43    1
    47     9    44    1
    48    11    45    1
    49    11    46    1
    50    11    47    1
    51    17    48    1
    52    18    49    1
    53    21    50    1
    54    21    51    1
    55    21    52    1
    56    22    53    1
    57    22    54    1
    58    22    55    1
    59    23    56    1
    60    23    57    1
    61    23    58    1
    62    24    59    1
    63    25    60    1
    64    27    61    1
    65    27    62    1
    66    31    63    1
    67    31    64    1
    68    31    65    1
    69    34    66    1
    70    34    67    1
    71    34    68    1
