@<TRIPOS>MOLECULE
*****
 68 71 0 0 0
SMALL
USER_CHARGES

@<TRIPOS>ATOM
      1 C1          1.9862    2.1088    8.2760 C.3     1  LIG1        0.0000
      2 O2          2.7113    2.7955    7.2666 O.3     1  LIG1        0.0000
      3 C3          2.3530    2.4238    5.9438 C.3     1  LIG1        0.0000
      4 C4          3.1872    3.2169    4.9511 C.3     1  LIG1        0.0000
      5 C5          2.8037    2.8192    3.5357 C.2     1  LIG1        0.0000
      6 N6          3.3203    3.3017    2.4340 N.2     1  LIG1        0.0000
      7 O7          2.7648    2.7409    1.4446 O.2     1  LIG1        0.0000
      8 C8          1.8781    1.8781    1.8781 C.2     1  LIG1        0.0000
      9 C9          1.0000    1.0000    1.0000 C.3     1  LIG1        0.0000
     10 N10        -0.2538    1.7059    0.6992 N.pl3   1  LIG1        0.0000
     11 C11        -1.3378    1.7340    1.6917 C.3     1  LIG1        0.0000
     12 C12        -0.4155    2.3511   -0.5319 C.2     1  LIG1        0.0000
     13 N13         0.2667    2.1237   -1.6290 N.2     1  LIG1        0.0000
     14 N14        -0.1619    2.9338   -2.5806 N.2     1  LIG1        0.0000
     15 C15        -1.1338    3.6816   -2.1275 C.2     1  LIG1        0.0000
     16 C16        -1.8679    4.6877   -2.8696 C.ar    1  LIG1        0.0000
     17 C17        -2.0394    4.5358   -4.2417 C.ar    1  LIG1        0.0000
     18 C18        -2.7442    5.5039   -4.9496 C.ar    1  LIG1        0.0000
     19 C19        -3.2669    6.6081   -4.2852 C.ar    1  LIG1        0.0000
     20 C20        -4.0351    7.6609   -5.0661 C.3     1  LIG1        0.0000
     21 C21        -5.4506    7.7631   -4.5216 C.3     1  LIG1        0.0000
     22 C22        -3.3394    9.0049   -4.9243 C.3     1  LIG1        0.0000
     23 C23        -4.0839    7.2679   -6.5336 C.3     1  LIG1        0.0000
     24 C24        -3.0916    6.7516   -2.9122 C.ar    1  LIG1        0.0000
     25 C25        -2.3883    5.7886   -2.1967 C.ar    1  LIG1        0.0000
     26 N26        -1.3099    3.3354   -0.8251 N.pl3   1  LIG1        0.0000
     27 C27        -2.2970    3.9137    0.0959 C.3     1  LIG1        0.0000
     28 C28        -3.1573    2.8023    0.6810 C.2     1  LIG1        0.0000
     29 S29        -3.7900    1.4545   -0.1315 S.3     1  LIG1        0.0000
     30 C30        -4.5913    0.7682    1.2040 C.2     1  LIG1        0.0000
     31 C31        -5.3838   -0.5296    1.1330 C.3     1  LIG1        0.0000
     32 N32        -4.3844    1.5573    2.2365 N.2     1  LIG1        0.0000
     33 C33        -3.6148    2.6644    1.9627 C.2     1  LIG1        0.0000
     34 C34        -3.2593    3.7184    2.9942 C.3     1  LIG1        0.0000
     35 N35         1.8678    1.8977    3.1879 N.2     1  LIG1        0.0000
     36 H           2.2908    2.4207    9.1760 H       1  LIG1        0.0000
     37 H           1.0096    2.2965    8.1711 H       1  LIG1        0.0000
     38 H           2.1476    1.1255    8.1919 H       1  LIG1        0.0000
     39 H           1.3834    2.6176    5.7942 H       1  LIG1        0.0000
     40 H           2.5213    1.4466    5.8150 H       1  LIG1        0.0000
     41 H           3.0188    4.1942    5.0799 H       1  LIG1        0.0000
     42 H           4.1567    3.0232    5.1006 H       1  LIG1        0.0000
     43 H           1.4802    0.7954    0.1471 H       1  LIG1        0.0000
     44 H           0.7954    0.1471    1.4802 H       1  LIG1        0.0000
     45 H          -1.0564    1.2280    2.5071 H       1  LIG1        0.0000
     46 H          -1.5378    2.6818    1.9401 H       1  LIG1        0.0000
     47 H          -2.1566    1.3114    1.3032 H       1  LIG1        0.0000
     48 H          -1.6604    3.7399   -4.7137 H       1  LIG1        0.0000
     49 H          -2.8749    5.4058   -5.9361 H       1  LIG1        0.0000
     50 H          -5.9562    8.4560   -5.0356 H       1  LIG1        0.0000
     51 H          -5.9083    6.8789   -4.6149 H       1  LIG1        0.0000
     52 H          -5.4185    8.0216   -3.5562 H       1  LIG1        0.0000
     53 H          -3.8451    9.6978   -5.4383 H       1  LIG1        0.0000
     54 H          -3.3074    9.2634   -3.9589 H       1  LIG1        0.0000
     55 H          -2.4082    8.9376   -5.2825 H       1  LIG1        0.0000
     56 H          -4.5895    7.9608   -7.0476 H       1  LIG1        0.0000
     57 H          -3.1527    7.2006   -6.8918 H       1  LIG1        0.0000
     58 H          -4.5416    6.3837   -6.6269 H       1  LIG1        0.0000
     59 H          -3.4714    7.5471   -2.4401 H       1  LIG1        0.0000
     60 H          -2.2582    5.8863   -1.2100 H       1  LIG1        0.0000
     61 H          -2.8781    4.5588   -0.4003 H       1  LIG1        0.0000
     62 H          -1.8230    4.3924    0.8349 H       1  LIG1        0.0000
     63 H          -5.7645   -0.7374    2.0340 H       1  LIG1        0.0000
     64 H          -6.1273   -0.4304    0.4717 H       1  LIG1        0.0000
     65 H          -4.7800   -1.2736    0.8466 H       1  LIG1        0.0000
     66 H          -2.6946    4.4250    2.5677 H       1  LIG1        0.0000
     67 H          -4.0971    4.1316    3.3510 H       1  LIG1        0.0000
     68 H          -2.7517    3.2935    3.7437 H       1  LIG1        0.0000
@<TRIPOS>BOND
     1     1     2    1
     2     2     3    1
     3     3     4    1
     4     4     5    1
     5     5     6    2
     6     6     7    1
     7     7     8    1
     8     8     9    1
     9     9    10    1
    10    10    11    1
    11    10    12    1
    12    12    13    2
    13    13    14    1
    14    14    15    2
    15    15    16    1
    16    16    17   ar
    17    17    18   ar
    18    18    19   ar
    19    19    20    1
    20    20    21    1
    21    20    22    1
    22    20    23    1
    23    19    24   ar
    24    24    25   ar
    25    25    16   ar
    26    15    26    1
    27    26    12    1
    28    26    27    1
    29    27    28    1
    30    28    29    1
    31    29    30    1
    32    30    31    1
    33    30    32    2
    34    32    33    1
    35    33    28    2
    36    33    34    1
    37     8    35    2
    38    35     5    1
    39     1    36    1
    40     1    37    1
    41     1    38    1
    42     3    39    1
    43     3    40    1
    44     4    41    1
    45     4    42    1
    46     9    43    1
    47     9    44    1
    48    11    45    1
    49    11    46    1
    50    11    47    1
    51    17    48    1
    52    18    49    1
    53    21    50    1
    54    21    51    1
    55    21    52    1
    56    22    53    1
    57    22    54    1
    58    22    55    1
    59    23    56    1
    60    23    57    1
    61    23    58    1
    62    24    59    1
    63    25    60    1
    64    27    61    1
    65    27    62    1
    66    31    63    1
    67    31    64    1
    68    31    65    1
    69    34    66    1
    70    34    67    1
    71    34    68    1
