@<TRIPOS>MOLECULE
*****
 68 71 0 0 0
SMALL
USER_CHARGES

@<TRIPOS>ATOM
      1 C1          1.9862    2.1088    8.2760 C.3     1  LIG1        0.0000
      2 O2          2.7113    2.7955    7.2666 O.3     1  LIG1        0.0000
      3 C3          2.3530    2.4238    5.9438 C.3     1  LIG1        0.0000
      4 C4          3.1872    3.2169    4.9511 C.3     1  LIG1        0.0000
      5 C5          2.8037    2.8192    3.5357 C.2     1  LIG1        0.0000
      6 N6          3.3203    3.3017    2.4340 N.2     1  LIG1        0.0000
      7 O7          2.7648    2.7409    1.4446 O.2     1  LIG1        0.0000
      8 C8          1.8781    1.8781    1.8781 C.2     1  LIG1        0.0000
      9 C9          1.0000    1.0000    1.0000 C.3     1  LIG1        0.0000
     10 N10        -0.2538    1.7059    0.6992 N.pl3   1  LIG1        0.0000
     11 C11        -1.4752    1.3882    1.4530 C.3     1  LIG1        0.0000
     12 C12        -0.2847    2.6803   -0.3046 C.2     1  LIG1        0.0000
     13 N13        -0.0562    3.9634   -0.1557 N.2     1  LIG1        0.0000
     14 N14        -0.1876    4.5648   -1.3247 N.2     1  LIG1        0.0000
     15 C15        -0.4825    3.6878   -2.2483 C.2     1  LIG1        0.0000
     16 C16        -0.6974    3.9556   -3.6568 C.ar    1  LIG1        0.0000
     17 C17        -0.5918    5.2598   -4.1288 C.ar    1  LIG1        0.0000
     18 C18        -0.7992    5.5119   -5.4810 C.ar    1  LIG1        0.0000
     19 C19        -1.1092    4.4660   -6.3436 C.ar    1  LIG1        0.0000
     20 C20        -1.3345    4.7503   -7.8190 C.3     1  LIG1        0.0000
     21 C21        -2.4949    5.7193   -7.9769 C.3     1  LIG1        0.0000
     22 C22        -0.0777    5.3637   -8.4145 C.3     1  LIG1        0.0000
     23 C23        -1.6562    3.4524   -8.5417 C.3     1  LIG1        0.0000
     24 C24        -1.2118    3.1641   -5.8632 C.ar    1  LIG1        0.0000
     25 C25        -1.0061    2.9031   -4.5128 C.ar    1  LIG1        0.0000
     26 N26        -0.5567    2.4827   -1.6243 N.pl3   1  LIG1        0.0000
     27 C27        -0.8647    1.1970   -2.2640 C.3     1  LIG1        0.0000
     28 C28         0.2953    0.7850   -3.1596 C.2     1  LIG1        0.0000
     29 S29         1.7318    1.6414   -3.4424 S.3     1  LIG1        0.0000
     30 C30         2.4299    0.5209   -4.5165 C.2     1  LIG1        0.0000
     31 C31         3.7984    0.7095   -5.1560 C.3     1  LIG1        0.0000
     32 N32         1.5792   -0.4731   -4.6577 N.2     1  LIG1        0.0000
     33 C33         0.4180   -0.3369   -3.9325 C.2     1  LIG1        0.0000
     34 C34        -0.7101   -1.3510   -3.9515 C.3     1  LIG1        0.0000
     35 N35         1.8678    1.8977    3.1879 N.2     1  LIG1        0.0000
     36 H           2.2908    2.4207    9.1760 H       1  LIG1        0.0000
     37 H           1.0096    2.2965    8.1711 H       1  LIG1        0.0000
     38 H           2.1476    1.1255    8.1919 H       1  LIG1        0.0000
     39 H           1.3834    2.6176    5.7942 H       1  LIG1        0.0000
     40 H           2.5213    1.4466    5.8150 H       1  LIG1        0.0000
     41 H           3.0188    4.1942    5.0799 H       1  LIG1        0.0000
     42 H           4.1567    3.0232    5.1006 H       1  LIG1        0.0000
     43 H           1.4802    0.7954    0.1471 H       1  LIG1        0.0000
     44 H           0.7954    0.1471    1.4802 H       1  LIG1        0.0000
     45 H          -1.2759    0.6758    2.1257 H       1  LIG1        0.0000
     46 H          -1.7999    2.2090    1.9229 H       1  LIG1        0.0000
     47 H          -2.1808    1.0638    0.8230 H       1  LIG1        0.0000
     48 H          -0.3693    6.0076   -3.5033 H       1  LIG1        0.0000
     49 H          -0.7254    6.4451   -5.8328 H       1  LIG1        0.0000
     50 H          -2.6432    5.9064   -8.9480 H       1  LIG1        0.0000
     51 H          -3.3218    5.3157   -7.5851 H       1  LIG1        0.0000
     52 H          -2.2832    6.5731   -7.5014 H       1  LIG1        0.0000
     53 H          -0.2259    5.5508   -9.3856 H       1  LIG1        0.0000
     54 H           0.1340    6.2176   -7.9390 H       1  LIG1        0.0000
     55 H           0.6858    4.7262   -8.3106 H       1  LIG1        0.0000
     56 H          -1.8045    3.6395   -9.5128 H       1  LIG1        0.0000
     57 H          -0.8928    2.8149   -8.4378 H       1  LIG1        0.0000
     58 H          -2.4831    3.0489   -8.1499 H       1  LIG1        0.0000
     59 H          -1.4335    2.4163   -6.4889 H       1  LIG1        0.0000
     60 H          -1.0792    1.9699   -4.1612 H       1  LIG1        0.0000
     61 H          -1.6945    1.2889   -2.8145 H       1  LIG1        0.0000
     62 H          -1.0067    0.5003   -1.5608 H       1  LIG1        0.0000
     63 H           4.0005   -0.0711   -5.7474 H       1  LIG1        0.0000
     64 H           3.7995    1.5488   -5.6998 H       1  LIG1        0.0000
     65 H           4.4944    0.7749   -4.4409 H       1  LIG1        0.0000
     66 H          -1.4468   -1.0413   -3.3504 H       1  LIG1        0.0000
     67 H          -1.0581   -1.4450   -4.8843 H       1  LIG1        0.0000
     68 H          -0.3689   -2.2352   -3.6324 H       1  LIG1        0.0000
@<TRIPOS>BOND
     1     1     2    1
     2     2     3    1
     3     3     4    1
     4     4     5    1
     5     5     6    2
     6     6     7    1
     7     7     8    1
     8     8     9    1
     9     9    10    1
    10    10    11    1
    11    10    12    1
    12    12    13    2
    13    13    14    1
    14    14    15    2
    15    15    16    1
    16    16    17   ar
    17    17    18   ar
    18    18    19   ar
    19    19    20    1
    20    20    21    1
    21    20    22    1
    22    20    23    1
    23    19    24   ar
    24    24    25   ar
    25    25    16   ar
    26    15    26    1
    27    26    12    1
    28    26    27    1
    29    27    28    1
    30    28    29    1
    31    29    30    1
    32    30    31    1
    33    30    32    2
    34    32    33    1
    35    33    28    2
    36    33    34    1
    37     8    35    2
    38    35     5    1
    39     1    36    1
    40     1    37    1
    41     1    38    1
    42     3    39    1
    43     3    40    1
    44     4    41    1
    45     4    42    1
    46     9    43    1
    47     9    44    1
    48    11    45    1
    49    11    46    1
    50    11    47    1
    51    17    48    1
    52    18    49    1
    53    21    50    1
    54    21    51    1
    55    21    52    1
    56    22    53    1
    57    22    54    1
    58    22    55    1
    59    23    56    1
    60    23    57    1
    61    23    58    1
    62    24    59    1
    63    25    60    1
    64    27    61    1
    65    27    62    1
    66    31    63    1
    67    31    64    1
    68    31    65    1
    69    34    66    1
    70    34    67    1
    71    34    68    1
