@<TRIPOS>MOLECULE
*****
 68 71 0 0 0
SMALL
USER_CHARGES

@<TRIPOS>ATOM
      1 C1          1.9862    2.1088    8.2760 C.3     1  LIG1        0.0000
      2 O2          2.7113    2.7955    7.2666 O.3     1  LIG1        0.0000
      3 C3          2.3530    2.4238    5.9438 C.3     1  LIG1        0.0000
      4 C4          3.1872    3.2169    4.9511 C.3     1  LIG1        0.0000
      5 C5          2.8037    2.8192    3.5357 C.2     1  LIG1        0.0000
      6 N6          3.3203    3.3017    2.4340 N.2     1  LIG1        0.0000
      7 O7          2.7648    2.7409    1.4446 O.2     1  LIG1        0.0000
      8 C8          1.8781    1.8781    1.8781 C.2     1  LIG1        0.0000
      9 C9          1.0000    1.0000    1.0000 C.3     1  LIG1        0.0000
     10 N10        -0.2538    1.7059    0.6992 N.pl3   1  LIG1        0.0000
     11 C11        -1.3378    1.7340    1.6917 C.3     1  LIG1        0.0000
     12 C12        -0.4155    2.3511   -0.5319 C.2     1  LIG1        0.0000
     13 N13        -0.1066    3.5956   -0.8086 N.2     1  LIG1        0.0000
     14 N14        -0.4130    3.8474   -2.0688 N.2     1  LIG1        0.0000
     15 C15        -0.9042    2.7751   -2.6327 C.2     1  LIG1        0.0000
     16 C16        -1.3496    2.6483   -4.0065 C.ar    1  LIG1        0.0000
     17 C17        -0.7503    3.4233   -4.9940 C.ar    1  LIG1        0.0000
     18 C18        -1.1813    3.2983   -6.3107 C.ar    1  LIG1        0.0000
     19 C19        -2.2009    2.4071   -6.6269 C.ar    1  LIG1        0.0000
     20 C20        -2.6657    2.2771   -8.0675 C.3     1  LIG1        0.0000
     21 C21        -2.4604    0.8468   -8.5391 C.3     1  LIG1        0.0000
     22 C22        -4.1405    2.6338   -8.1581 C.3     1  LIG1        0.0000
     23 C23        -1.8613    3.2208   -8.9465 C.3     1  LIG1        0.0000
     24 C24        -2.7942    1.6348   -5.6329 C.ar    1  LIG1        0.0000
     25 C25        -2.3696    1.7534   -4.3140 C.ar    1  LIG1        0.0000
     26 N26        -0.9227    1.8113   -1.6747 N.pl3   1  LIG1        0.0000
     27 C27        -1.3956    0.4316   -1.8474 C.3     1  LIG1        0.0000
     28 C28        -2.4542    0.1229   -0.7977 C.2     1  LIG1        0.0000
     29 S29        -2.4141   -1.1016    0.3753 S.3     1  LIG1        0.0000
     30 C30        -3.9205   -0.7528    1.0865 C.2     1  LIG1        0.0000
     31 C31        -4.4942   -1.5289    2.2638 C.3     1  LIG1        0.0000
     32 N32        -4.4382    0.2662    0.4345 N.2     1  LIG1        0.0000
     33 C33        -3.6555    0.7436   -0.5913 C.2     1  LIG1        0.0000
     34 C34        -4.0554    1.9010   -1.4867 C.3     1  LIG1        0.0000
     35 N35         1.8678    1.8977    3.1879 N.2     1  LIG1        0.0000
     36 H           2.2908    2.4207    9.1760 H       1  LIG1        0.0000
     37 H           1.0096    2.2965    8.1711 H       1  LIG1        0.0000
     38 H           2.1476    1.1255    8.1919 H       1  LIG1        0.0000
     39 H           1.3834    2.6176    5.7942 H       1  LIG1        0.0000
     40 H           2.5213    1.4466    5.8150 H       1  LIG1        0.0000
     41 H           3.0188    4.1942    5.0799 H       1  LIG1        0.0000
     42 H           4.1567    3.0232    5.1006 H       1  LIG1        0.0000
     43 H           1.4802    0.7954    0.1471 H       1  LIG1        0.0000
     44 H           0.7954    0.1471    1.4802 H       1  LIG1        0.0000
     45 H          -1.0564    1.2280    2.5071 H       1  LIG1        0.0000
     46 H          -1.5378    2.6818    1.9401 H       1  LIG1        0.0000
     47 H          -2.1566    1.3114    1.3032 H       1  LIG1        0.0000
     48 H          -0.0181    4.0629   -4.7601 H       1  LIG1        0.0000
     49 H          -0.7579    3.8493   -7.0298 H       1  LIG1        0.0000
     50 H          -2.7664    0.7613   -9.4873 H       1  LIG1        0.0000
     51 H          -1.4902    0.6122   -8.4794 H       1  LIG1        0.0000
     52 H          -2.9897    0.2259   -7.9608 H       1  LIG1        0.0000
     53 H          -4.4465    2.5482   -9.1063 H       1  LIG1        0.0000
     54 H          -4.6698    2.0129   -7.5798 H       1  LIG1        0.0000
     55 H          -4.2756    3.5748   -7.8479 H       1  LIG1        0.0000
     56 H          -2.1673    3.1353   -9.8947 H       1  LIG1        0.0000
     57 H          -1.9964    4.1618   -8.6362 H       1  LIG1        0.0000
     58 H          -0.8911    2.9862   -8.8869 H       1  LIG1        0.0000
     59 H          -3.5259    0.9946   -5.8670 H       1  LIG1        0.0000
     60 H          -2.7924    1.2018   -3.5950 H       1  LIG1        0.0000
     61 H          -0.6274   -0.1998   -1.7418 H       1  LIG1        0.0000
     62 H          -1.7905    0.3263   -2.7601 H       1  LIG1        0.0000
     63 H          -5.3854   -1.1487    2.5111 H       1  LIG1        0.0000
     64 H          -4.6009   -2.4901    2.0092 H       1  LIG1        0.0000
     65 H          -3.8732   -1.4577    3.0443 H       1  LIG1        0.0000
     66 H          -3.3327    2.0689   -2.1572 H       1  LIG1        0.0000
     67 H          -4.9058    1.6761   -1.9624 H       1  LIG1        0.0000
     68 H          -4.1913    2.7211   -0.9307 H       1  LIG1        0.0000
@<TRIPOS>BOND
     1     1     2    1
     2     2     3    1
     3     3     4    1
     4     4     5    1
     5     5     6    2
     6     6     7    1
     7     7     8    1
     8     8     9    1
     9     9    10    1
    10    10    11    1
    11    10    12    1
    12    12    13    2
    13    13    14    1
    14    14    15    2
    15    15    16    1
    16    16    17   ar
    17    17    18   ar
    18    18    19   ar
    19    19    20    1
    20    20    21    1
    21    20    22    1
    22    20    23    1
    23    19    24   ar
    24    24    25   ar
    25    25    16   ar
    26    15    26    1
    27    26    12    1
    28    26    27    1
    29    27    28    1
    30    28    29    1
    31    29    30    1
    32    30    31    1
    33    30    32    2
    34    32    33    1
    35    33    28    2
    36    33    34    1
    37     8    35    2
    38    35     5    1
    39     1    36    1
    40     1    37    1
    41     1    38    1
    42     3    39    1
    43     3    40    1
    44     4    41    1
    45     4    42    1
    46     9    43    1
    47     9    44    1
    48    11    45    1
    49    11    46    1
    50    11    47    1
    51    17    48    1
    52    18    49    1
    53    21    50    1
    54    21    51    1
    55    21    52    1
    56    22    53    1
    57    22    54    1
    58    22    55    1
    59    23    56    1
    60    23    57    1
    61    23    58    1
    62    24    59    1
    63    25    60    1
    64    27    61    1
    65    27    62    1
    66    31    63    1
    67    31    64    1
    68    31    65    1
    69    34    66    1
    70    34    67    1
    71    34    68    1
