@<TRIPOS>MOLECULE
*****
 68 71 0 0 0
SMALL
USER_CHARGES

@<TRIPOS>ATOM
      1 C1          1.9862    2.1088    8.2760 C.3     1  LIG1        0.0000
      2 O2          2.7113    2.7955    7.2666 O.3     1  LIG1        0.0000
      3 C3          2.3530    2.4238    5.9438 C.3     1  LIG1        0.0000
      4 C4          3.1872    3.2169    4.9511 C.3     1  LIG1        0.0000
      5 C5          2.8037    2.8192    3.5357 C.2     1  LIG1        0.0000
      6 N6          3.3203    3.3017    2.4340 N.2     1  LIG1        0.0000
      7 O7          2.7648    2.7409    1.4446 O.2     1  LIG1        0.0000
      8 C8          1.8781    1.8781    1.8781 C.2     1  LIG1        0.0000
      9 C9          1.0000    1.0000    1.0000 C.3     1  LIG1        0.0000
     10 N10        -0.2538    1.7059    0.6992 N.pl3   1  LIG1        0.0000
     11 C11        -1.4752    1.3882    1.4530 C.3     1  LIG1        0.0000
     12 C12        -0.2847    2.6803   -0.3046 C.2     1  LIG1        0.0000
     13 N13        -1.1803    3.6282   -0.4465 N.2     1  LIG1        0.0000
     14 N14        -0.8840    4.3469   -1.5147 N.2     1  LIG1        0.0000
     15 C15         0.2098    3.8941   -2.0693 C.2     1  LIG1        0.0000
     16 C16         0.8600    4.4206   -3.2533 C.ar    1  LIG1        0.0000
     17 C17         0.7524    5.7760   -3.5471 C.ar    1  LIG1        0.0000
     18 C18         1.3776    6.2764   -4.6844 C.ar    1  LIG1        0.0000
     19 C19         2.0992    5.4240   -5.5131 C.ar    1  LIG1        0.0000
     20 C20         2.7787    5.9789   -6.7535 C.3     1  LIG1        0.0000
     21 C21         1.7346    6.5941   -7.6710 C.3     1  LIG1        0.0000
     22 C22         3.7855    7.0426   -6.3467 C.3     1  LIG1        0.0000
     23 C23         3.4960    4.8553   -7.4838 C.3     1  LIG1        0.0000
     24 C24         2.2026    4.0696   -5.2112 C.ar    1  LIG1        0.0000
     25 C25         1.5807    3.5608   -4.0762 C.ar    1  LIG1        0.0000
     26 N26         0.6071    2.8302   -1.3228 N.pl3   1  LIG1        0.0000
     27 C27         1.7934    1.9992   -1.5670 C.3     1  LIG1        0.0000
     28 C28         1.3573    0.6142   -2.0243 C.2     1  LIG1        0.0000
     29 S29        -0.2292    0.0452   -2.2144 S.3     1  LIG1        0.0000
     30 C30         0.1771   -1.5266   -2.7255 C.2     1  LIG1        0.0000
     31 C31        -0.8545   -2.5870   -3.0842 C.3     1  LIG1        0.0000
     32 N32         1.4903   -1.6100   -2.7391 N.2     1  LIG1        0.0000
     33 C33         2.1385   -0.4588   -2.3552 C.2     1  LIG1        0.0000
     34 C34         3.6481   -0.3275   -2.2812 C.3     1  LIG1        0.0000
     35 N35         1.8678    1.8977    3.1879 N.2     1  LIG1        0.0000
     36 H           2.2908    2.4207    9.1760 H       1  LIG1        0.0000
     37 H           1.0096    2.2965    8.1711 H       1  LIG1        0.0000
     38 H           2.1476    1.1255    8.1919 H       1  LIG1        0.0000
     39 H           1.3834    2.6176    5.7942 H       1  LIG1        0.0000
     40 H           2.5213    1.4466    5.8150 H       1  LIG1        0.0000
     41 H           3.0188    4.1942    5.0799 H       1  LIG1        0.0000
     42 H           4.1567    3.0232    5.1006 H       1  LIG1        0.0000
     43 H           1.4802    0.7954    0.1471 H       1  LIG1        0.0000
     44 H           0.7954    0.1471    1.4802 H       1  LIG1        0.0000
     45 H          -1.2759    0.6758    2.1257 H       1  LIG1        0.0000
     46 H          -1.7999    2.2090    1.9229 H       1  LIG1        0.0000
     47 H          -2.1808    1.0638    0.8230 H       1  LIG1        0.0000
     48 H           0.2314    6.3836   -2.9476 H       1  LIG1        0.0000
     49 H           1.3083    7.2491   -4.9061 H       1  LIG1        0.0000
     50 H           2.1819    6.9593   -8.4874 H       1  LIG1        0.0000
     51 H           1.0723    5.8943   -7.9386 H       1  LIG1        0.0000
     52 H           1.2627    7.3333   -7.1905 H       1  LIG1        0.0000
     53 H           4.2328    7.4078   -7.1631 H       1  LIG1        0.0000
     54 H           3.3136    7.7818   -5.8662 H       1  LIG1        0.0000
     55 H           4.4724    6.6379   -5.7431 H       1  LIG1        0.0000
     56 H           3.9433    5.2205   -8.3002 H       1  LIG1        0.0000
     57 H           4.1830    4.4506   -6.8802 H       1  LIG1        0.0000
     58 H           2.8337    4.1555   -7.7515 H       1  LIG1        0.0000
     59 H           2.7242    3.4622   -5.8103 H       1  LIG1        0.0000
     60 H           1.6506    2.5883   -3.8541 H       1  LIG1        0.0000
     61 H           2.3242    1.9199   -0.7233 H       1  LIG1        0.0000
     62 H           2.3566    2.4225   -2.2767 H       1  LIG1        0.0000
     63 H          -0.3872   -3.4285   -3.3552 H       1  LIG1        0.0000
     64 H          -1.4353   -2.7689   -2.2907 H       1  LIG1        0.0000
     65 H          -1.4188   -2.2601   -3.8423 H       1  LIG1        0.0000
     66 H           3.8880    0.5951   -1.9794 H       1  LIG1        0.0000
     67 H           4.0093   -0.9956   -1.6306 H       1  LIG1        0.0000
     68 H           4.0419   -0.4957   -3.1849 H       1  LIG1        0.0000
@<TRIPOS>BOND
     1     1     2    1
     2     2     3    1
     3     3     4    1
     4     4     5    1
     5     5     6    2
     6     6     7    1
     7     7     8    1
     8     8     9    1
     9     9    10    1
    10    10    11    1
    11    10    12    1
    12    12    13    2
    13    13    14    1
    14    14    15    2
    15    15    16    1
    16    16    17   ar
    17    17    18   ar
    18    18    19   ar
    19    19    20    1
    20    20    21    1
    21    20    22    1
    22    20    23    1
    23    19    24   ar
    24    24    25   ar
    25    25    16   ar
    26    15    26    1
    27    26    12    1
    28    26    27    1
    29    27    28    1
    30    28    29    1
    31    29    30    1
    32    30    31    1
    33    30    32    2
    34    32    33    1
    35    33    28    2
    36    33    34    1
    37     8    35    2
    38    35     5    1
    39     1    36    1
    40     1    37    1
    41     1    38    1
    42     3    39    1
    43     3    40    1
    44     4    41    1
    45     4    42    1
    46     9    43    1
    47     9    44    1
    48    11    45    1
    49    11    46    1
    50    11    47    1
    51    17    48    1
    52    18    49    1
    53    21    50    1
    54    21    51    1
    55    21    52    1
    56    22    53    1
    57    22    54    1
    58    22    55    1
    59    23    56    1
    60    23    57    1
    61    23    58    1
    62    24    59    1
    63    25    60    1
    64    27    61    1
    65    27    62    1
    66    31    63    1
    67    31    64    1
    68    31    65    1
    69    34    66    1
    70    34    67    1
    71    34    68    1
