@<TRIPOS>MOLECULE
*****
 68 71 0 0 0
SMALL
USER_CHARGES

@<TRIPOS>ATOM
      1 C1          1.9862    2.1088    8.2760 C.3     1  LIG1        0.0000
      2 O2          2.7113    2.7955    7.2666 O.3     1  LIG1        0.0000
      3 C3          2.3530    2.4238    5.9438 C.3     1  LIG1        0.0000
      4 C4          3.1872    3.2169    4.9511 C.3     1  LIG1        0.0000
      5 C5          2.8037    2.8192    3.5357 C.2     1  LIG1        0.0000
      6 N6          3.3203    3.3017    2.4340 N.2     1  LIG1        0.0000
      7 O7          2.7648    2.7409    1.4446 O.2     1  LIG1        0.0000
      8 C8          1.8781    1.8781    1.8781 C.2     1  LIG1        0.0000
      9 C9          1.0000    1.0000    1.0000 C.3     1  LIG1        0.0000
     10 N10        -0.2538    1.7059    0.6992 N.pl3   1  LIG1        0.0000
     11 C11        -1.4752    1.3882    1.4530 C.3     1  LIG1        0.0000
     12 C12        -0.2847    2.6803   -0.3046 C.2     1  LIG1        0.0000
     13 N13         0.7223    3.0639   -1.0527 N.2     1  LIG1        0.0000
     14 N14         0.3118    4.0100   -1.8786 N.2     1  LIG1        0.0000
     15 C15        -0.9617    4.2418   -1.6958 C.2     1  LIG1        0.0000
     16 C16        -1.7769    5.2017   -2.4141 C.ar    1  LIG1        0.0000
     17 C17        -1.1975    5.9821   -3.4091 C.ar    1  LIG1        0.0000
     18 C18        -1.9836    6.9019   -4.0954 C.ar    1  LIG1        0.0000
     19 C19        -3.3322    7.0338   -3.7828 C.ar    1  LIG1        0.0000
     20 C20        -4.1835    8.0412   -4.5371 C.3     1  LIG1        0.0000
     21 C21        -3.6163    9.4367   -4.3340 C.3     1  LIG1        0.0000
     22 C22        -4.1764    7.7020   -6.0187 C.3     1  LIG1        0.0000
     23 C23        -5.6095    7.9927   -4.0130 C.3     1  LIG1        0.0000
     24 C24        -3.9041    6.2483   -2.7867 C.ar    1  LIG1        0.0000
     25 C25        -3.1256    5.3263   -2.0956 C.ar    1  LIG1        0.0000
     26 N26        -1.3634    3.4140   -0.6956 N.pl3   1  LIG1        0.0000
     27 C27        -2.7217    3.3216   -0.1446 C.3     1  LIG1        0.0000
     28 C28        -3.0327    4.5809    0.6524 C.2     1  LIG1        0.0000
     29 S29        -2.0087    5.9052    0.9255 S.3     1  LIG1        0.0000
     30 C30        -3.0961    6.8135    1.8685 C.2     1  LIG1        0.0000
     31 C31        -2.7667    8.1825    2.4472 C.3     1  LIG1        0.0000
     32 N32        -4.2054    6.1138    1.9754 N.2     1  LIG1        0.0000
     33 C33        -4.1792    4.9011    1.3261 C.2     1  LIG1        0.0000
     34 C34        -5.3380    3.9220    1.3246 C.3     1  LIG1        0.0000
     35 N35         1.8678    1.8977    3.1879 N.2     1  LIG1        0.0000
     36 H           2.2908    2.4207    9.1760 H       1  LIG1        0.0000
     37 H           1.0096    2.2965    8.1711 H       1  LIG1        0.0000
     38 H           2.1476    1.1255    8.1919 H       1  LIG1        0.0000
     39 H           1.3834    2.6176    5.7942 H       1  LIG1        0.0000
     40 H           2.5213    1.4466    5.8150 H       1  LIG1        0.0000
     41 H           3.0188    4.1942    5.0799 H       1  LIG1        0.0000
     42 H           4.1567    3.0232    5.1006 H       1  LIG1        0.0000
     43 H           1.4802    0.7954    0.1471 H       1  LIG1        0.0000
     44 H           0.7954    0.1471    1.4802 H       1  LIG1        0.0000
     45 H          -1.2759    0.6758    2.1257 H       1  LIG1        0.0000
     46 H          -1.7999    2.2090    1.9229 H       1  LIG1        0.0000
     47 H          -2.1808    1.0638    0.8230 H       1  LIG1        0.0000
     48 H          -0.2269    5.8830   -3.6286 H       1  LIG1        0.0000
     49 H          -1.5789    7.4682   -4.8133 H       1  LIG1        0.0000
     50 H          -4.1766   10.0997   -4.8304 H       1  LIG1        0.0000
     51 H          -3.6210    9.6598   -3.3592 H       1  LIG1        0.0000
     52 H          -2.6781    9.4686   -4.6788 H       1  LIG1        0.0000
     53 H          -4.7367    8.3650   -6.5152 H       1  LIG1        0.0000
     54 H          -3.2382    7.7339   -6.3635 H       1  LIG1        0.0000
     55 H          -4.5495    6.7839   -6.1523 H       1  LIG1        0.0000
     56 H          -6.1698    8.6557   -4.5095 H       1  LIG1        0.0000
     57 H          -5.9827    7.0746   -4.1466 H       1  LIG1        0.0000
     58 H          -5.6142    8.2158   -3.0383 H       1  LIG1        0.0000
     59 H          -4.8748    6.3469   -2.5677 H       1  LIG1        0.0000
     60 H          -3.5303    4.7594   -1.3781 H       1  LIG1        0.0000
     61 H          -2.7847    2.5237    0.4549 H       1  LIG1        0.0000
     62 H          -3.3792    3.2296   -0.8923 H       1  LIG1        0.0000
     63 H          -3.5522    8.5241    2.9631 H       1  LIG1        0.0000
     64 H          -1.9763    8.1060    3.0550 H       1  LIG1        0.0000
     65 H          -2.5550    8.8166    1.7034 H       1  LIG1        0.0000
     66 H          -5.0908    3.1138    0.7901 H       1  LIG1        0.0000
     67 H          -5.5455    3.6496    2.2641 H       1  LIG1        0.0000
     68 H          -6.1416    4.3572    0.9185 H       1  LIG1        0.0000
@<TRIPOS>BOND
     1     1     2    1
     2     2     3    1
     3     3     4    1
     4     4     5    1
     5     5     6    2
     6     6     7    1
     7     7     8    1
     8     8     9    1
     9     9    10    1
    10    10    11    1
    11    10    12    1
    12    12    13    2
    13    13    14    1
    14    14    15    2
    15    15    16    1
    16    16    17   ar
    17    17    18   ar
    18    18    19   ar
    19    19    20    1
    20    20    21    1
    21    20    22    1
    22    20    23    1
    23    19    24   ar
    24    24    25   ar
    25    25    16   ar
    26    15    26    1
    27    26    12    1
    28    26    27    1
    29    27    28    1
    30    28    29    1
    31    29    30    1
    32    30    31    1
    33    30    32    2
    34    32    33    1
    35    33    28    2
    36    33    34    1
    37     8    35    2
    38    35     5    1
    39     1    36    1
    40     1    37    1
    41     1    38    1
    42     3    39    1
    43     3    40    1
    44     4    41    1
    45     4    42    1
    46     9    43    1
    47     9    44    1
    48    11    45    1
    49    11    46    1
    50    11    47    1
    51    17    48    1
    52    18    49    1
    53    21    50    1
    54    21    51    1
    55    21    52    1
    56    22    53    1
    57    22    54    1
    58    22    55    1
    59    23    56    1
    60    23    57    1
    61    23    58    1
    62    24    59    1
    63    25    60    1
    64    27    61    1
    65    27    62    1
    66    31    63    1
    67    31    64    1
    68    31    65    1
    69    34    66    1
    70    34    67    1
    71    34    68    1
