@<TRIPOS>MOLECULE
*****
 68 71 0 0 0
SMALL
USER_CHARGES

@<TRIPOS>ATOM
      1 C1          1.9862    2.1088    8.2760 C.3     1  LIG1        0.0000
      2 O2          2.7113    2.7955    7.2666 O.3     1  LIG1        0.0000
      3 C3          2.3530    2.4238    5.9438 C.3     1  LIG1        0.0000
      4 C4          3.1872    3.2169    4.9511 C.3     1  LIG1        0.0000
      5 C5          2.8037    2.8192    3.5357 C.2     1  LIG1        0.0000
      6 N6          3.3203    3.3017    2.4340 N.2     1  LIG1        0.0000
      7 O7          2.7648    2.7409    1.4446 O.2     1  LIG1        0.0000
      8 C8          1.8781    1.8781    1.8781 C.2     1  LIG1        0.0000
      9 C9          1.0000    1.0000    1.0000 C.3     1  LIG1        0.0000
     10 N10        -0.2538    1.7059    0.6992 N.pl3   1  LIG1        0.0000
     11 C11        -1.5410    1.1233    1.1051 C.3     1  LIG1        0.0000
     12 C12        -0.2221    2.9325    0.0265 C.2     1  LIG1        0.0000
     13 N13        -0.2671    3.1131   -1.2721 N.2     1  LIG1        0.0000
     14 N14        -0.2035    4.4070   -1.5313 N.2     1  LIG1        0.0000
     15 C15        -0.1358    5.0842   -0.4150 C.2     1  LIG1        0.0000
     16 C16        -0.0612    6.5259   -0.2823 C.ar    1  LIG1        0.0000
     17 C17        -0.6582    7.3331   -1.2451 C.ar    1  LIG1        0.0000
     18 C18        -0.5837    8.7159   -1.1136 C.ar    1  LIG1        0.0000
     19 C19         0.0830    9.2762   -0.0294 C.ar    1  LIG1        0.0000
     20 C20         0.1599   10.7875    0.1063 C.3     1  LIG1        0.0000
     21 C21         0.8671   11.3698   -1.1067 C.3     1  LIG1        0.0000
     22 C22        -1.2451   11.3602    0.1969 C.3     1  LIG1        0.0000
     23 C23         0.9347   11.1445    1.3643 C.3     1  LIG1        0.0000
     24 C24         0.6765    8.4613    0.9298 C.ar    1  LIG1        0.0000
     25 C25         0.6068    7.0779    0.8062 C.ar    1  LIG1        0.0000
     26 N26        -0.1392    4.1694    0.5901 N.pl3   1  LIG1        0.0000
     27 C27        -0.0758    4.4659    2.0273 C.3     1  LIG1        0.0000
     28 C28        -1.2635    3.8239    2.7307 C.2     1  LIG1        0.0000
     29 S29        -1.2846    2.3591    3.5857 S.3     1  LIG1        0.0000
     30 C30        -2.9309    2.3971    4.0158 C.2     1  LIG1        0.0000
     31 C31        -3.6092    1.3132    4.8418 C.3     1  LIG1        0.0000
     32 N32        -3.4459    3.4968    3.5088 N.2     1  LIG1        0.0000
     33 C33        -2.5534    4.2729    2.8061 C.2     1  LIG1        0.0000
     34 C34        -2.9260    5.5753    2.1233 C.3     1  LIG1        0.0000
     35 N35         1.8678    1.8977    3.1879 N.2     1  LIG1        0.0000
     36 H           2.2908    2.4207    9.1760 H       1  LIG1        0.0000
     37 H           1.0096    2.2965    8.1711 H       1  LIG1        0.0000
     38 H           2.1476    1.1255    8.1919 H       1  LIG1        0.0000
     39 H           1.3834    2.6176    5.7942 H       1  LIG1        0.0000
     40 H           2.5213    1.4466    5.8150 H       1  LIG1        0.0000
     41 H           3.0188    4.1942    5.0799 H       1  LIG1        0.0000
     42 H           4.1567    3.0232    5.1006 H       1  LIG1        0.0000
     43 H           1.4802    0.7954    0.1471 H       1  LIG1        0.0000
     44 H           0.7954    0.1471    1.4802 H       1  LIG1        0.0000
     45 H          -1.3809    0.2527    1.5703 H       1  LIG1        0.0000
     46 H          -2.0102    1.7514    1.7258 H       1  LIG1        0.0000
     47 H          -2.1074    0.9695    0.2955 H       1  LIG1        0.0000
     48 H          -1.1355    6.9240   -2.0228 H       1  LIG1        0.0000
     49 H          -1.0094    9.3070   -1.7987 H       1  LIG1        0.0000
     50 H           0.9177   12.3645   -1.0174 H       1  LIG1        0.0000
     51 H           1.7915   10.9930   -1.1664 H       1  LIG1        0.0000
     52 H           0.3573   11.1349   -1.9343 H       1  LIG1        0.0000
     53 H          -1.1945   12.3550    0.2862 H       1  LIG1        0.0000
     54 H          -1.7549   11.1254   -0.6307 H       1  LIG1        0.0000
     55 H          -1.7104   10.9772    0.9949 H       1  LIG1        0.0000
     56 H           0.9854   12.1392    1.4536 H       1  LIG1        0.0000
     57 H           0.4695   10.7615    2.1623 H       1  LIG1        0.0000
     58 H           1.8591   10.7677    1.3046 H       1  LIG1        0.0000
     59 H           1.1531    8.8705    1.7079 H       1  LIG1        0.0000
     60 H           1.0320    6.4868    1.4916 H       1  LIG1        0.0000
     61 H          -0.1023    5.4560    2.1648 H       1  LIG1        0.0000
     62 H           0.7740    4.0993    2.4061 H       1  LIG1        0.0000
     63 H          -4.5734    1.5458    4.9696 H       1  LIG1        0.0000
     64 H          -3.5381    0.4371    4.3649 H       1  LIG1        0.0000
     65 H          -3.1618    1.2446    5.7335 H       1  LIG1        0.0000
     66 H          -2.1183    5.9610    1.6774 H       1  LIG1        0.0000
     67 H          -3.6339    5.4021    1.4386 H       1  LIG1        0.0000
     68 H          -3.2716    6.2215    2.8038 H       1  LIG1        0.0000
@<TRIPOS>BOND
     1     1     2    1
     2     2     3    1
     3     3     4    1
     4     4     5    1
     5     5     6    2
     6     6     7    1
     7     7     8    1
     8     8     9    1
     9     9    10    1
    10    10    11    1
    11    10    12    1
    12    12    13    2
    13    13    14    1
    14    14    15    2
    15    15    16    1
    16    16    17   ar
    17    17    18   ar
    18    18    19   ar
    19    19    20    1
    20    20    21    1
    21    20    22    1
    22    20    23    1
    23    19    24   ar
    24    24    25   ar
    25    25    16   ar
    26    15    26    1
    27    26    12    1
    28    26    27    1
    29    27    28    1
    30    28    29    1
    31    29    30    1
    32    30    31    1
    33    30    32    2
    34    32    33    1
    35    33    28    2
    36    33    34    1
    37     8    35    2
    38    35     5    1
    39     1    36    1
    40     1    37    1
    41     1    38    1
    42     3    39    1
    43     3    40    1
    44     4    41    1
    45     4    42    1
    46     9    43    1
    47     9    44    1
    48    11    45    1
    49    11    46    1
    50    11    47    1
    51    17    48    1
    52    18    49    1
    53    21    50    1
    54    21    51    1
    55    21    52    1
    56    22    53    1
    57    22    54    1
    58    22    55    1
    59    23    56    1
    60    23    57    1
    61    23    58    1
    62    24    59    1
    63    25    60    1
    64    27    61    1
    65    27    62    1
    66    31    63    1
    67    31    64    1
    68    31    65    1
    69    34    66    1
    70    34    67    1
    71    34    68    1
