@<TRIPOS>MOLECULE
*****
 68 71 0 0 0
SMALL
USER_CHARGES

@<TRIPOS>ATOM
      1 C1          1.9862    2.1088    8.2760 C.3     1  LIG1        0.0000
      2 O2          2.7113    2.7955    7.2666 O.3     1  LIG1        0.0000
      3 C3          2.3530    2.4238    5.9438 C.3     1  LIG1        0.0000
      4 C4          3.1872    3.2169    4.9511 C.3     1  LIG1        0.0000
      5 C5          2.8037    2.8192    3.5357 C.2     1  LIG1        0.0000
      6 N6          3.3203    3.3017    2.4340 N.2     1  LIG1        0.0000
      7 O7          2.7648    2.7409    1.4446 O.2     1  LIG1        0.0000
      8 C8          1.8781    1.8781    1.8781 C.2     1  LIG1        0.0000
      9 C9          1.0000    1.0000    1.0000 C.3     1  LIG1        0.0000
     10 N10        -0.2538    1.7059    0.6992 N.pl3   1  LIG1        0.0000
     11 C11        -1.4752    1.3882    1.4530 C.3     1  LIG1        0.0000
     12 C12        -0.2847    2.6803   -0.3046 C.2     1  LIG1        0.0000
     13 N13        -0.5477    2.4857   -1.5750 N.2     1  LIG1        0.0000
     14 N14        -0.4719    3.6394   -2.2141 N.2     1  LIG1        0.0000
     15 C15        -0.1795    4.5978   -1.3743 C.2     1  LIG1        0.0000
     16 C16        -0.0176    6.0035   -1.6899 C.ar    1  LIG1        0.0000
     17 C17        -0.1782    6.4324   -3.0033 C.ar    1  LIG1        0.0000
     18 C18        -0.0215    7.7821   -3.3013 C.ar    1  LIG1        0.0000
     19 C19         0.2930    8.6850   -2.2915 C.ar    1  LIG1        0.0000
     20 C20         0.4626   10.1574   -2.6258 C.3     1  LIG1        0.0000
     21 C21         1.5872   10.3215   -3.6352 C.3     1  LIG1        0.0000
     22 C22        -0.8307   10.6951   -3.2162 C.3     1  LIG1        0.0000
     23 C23         0.8011   10.9285   -1.3604 C.3     1  LIG1        0.0000
     24 C24         0.4507    8.2476   -0.9800 C.ar    1  LIG1        0.0000
     25 C25         0.2960    6.9000   -0.6732 C.ar    1  LIG1        0.0000
     26 N26        -0.0486    4.0131   -0.1545 N.pl3   1  LIG1        0.0000
     27 C27         0.2783    4.7005    1.1016 C.3     1  LIG1        0.0000
     28 C28         1.7298    5.1585    1.0666 C.2     1  LIG1        0.0000
     29 S29         2.8544    4.9199   -0.1805 S.3     1  LIG1        0.0000
     30 C30         4.1631    5.7068    0.5711 C.2     1  LIG1        0.0000
     31 C31         5.5364    5.8529   -0.0694 C.3     1  LIG1        0.0000
     32 N32         3.7475    6.1294    1.7460 N.2     1  LIG1        0.0000
     33 C33         2.4338    5.8322    2.0265 C.2     1  LIG1        0.0000
     34 C34         1.7448    6.2072    3.3250 C.3     1  LIG1        0.0000
     35 N35         1.8678    1.8977    3.1879 N.2     1  LIG1        0.0000
     36 H           2.2908    2.4207    9.1760 H       1  LIG1        0.0000
     37 H           1.0096    2.2965    8.1711 H       1  LIG1        0.0000
     38 H           2.1476    1.1255    8.1919 H       1  LIG1        0.0000
     39 H           1.3834    2.6176    5.7942 H       1  LIG1        0.0000
     40 H           2.5213    1.4466    5.8150 H       1  LIG1        0.0000
     41 H           3.0188    4.1942    5.0799 H       1  LIG1        0.0000
     42 H           4.1567    3.0232    5.1006 H       1  LIG1        0.0000
     43 H           1.4802    0.7954    0.1471 H       1  LIG1        0.0000
     44 H           0.7954    0.1471    1.4802 H       1  LIG1        0.0000
     45 H          -1.2759    0.6758    2.1257 H       1  LIG1        0.0000
     46 H          -1.7999    2.2090    1.9229 H       1  LIG1        0.0000
     47 H          -2.1808    1.0638    0.8230 H       1  LIG1        0.0000
     48 H          -0.4036    5.7780   -3.7251 H       1  LIG1        0.0000
     49 H          -0.1351    8.1030   -4.2416 H       1  LIG1        0.0000
     50 H           1.6988   11.2906   -3.8552 H       1  LIG1        0.0000
     51 H           2.4380    9.9677   -3.2467 H       1  LIG1        0.0000
     52 H           1.3645    9.8141   -4.4677 H       1  LIG1        0.0000
     53 H          -0.7190   11.6642   -3.4362 H       1  LIG1        0.0000
     54 H          -1.0533   10.1878   -4.0487 H       1  LIG1        0.0000
     55 H          -1.5705   10.5872   -2.5521 H       1  LIG1        0.0000
     56 H           0.9127   11.8976   -1.5804 H       1  LIG1        0.0000
     57 H           0.0612   10.8206   -0.6963 H       1  LIG1        0.0000
     58 H           1.6519   10.5747   -0.9719 H       1  LIG1        0.0000
     59 H           0.6754    8.9021   -0.2581 H       1  LIG1        0.0000
     60 H           0.4088    6.5792    0.2672 H       1  LIG1        0.0000
     61 H           0.1450    4.0736    1.8692 H       1  LIG1        0.0000
     62 H          -0.3192    5.4947    1.2123 H       1  LIG1        0.0000
     63 H           6.1433    6.3478    0.5525 H       1  LIG1        0.0000
     64 H           5.9160    4.9465   -0.2545 H       1  LIG1        0.0000
     65 H           5.4520    6.3605   -0.9269 H       1  LIG1        0.0000
     66 H           0.7969    5.8894    3.3032 H       1  LIG1        0.0000
     67 H           2.2226    5.7786    4.0918 H       1  LIG1        0.0000
     68 H           1.7607    7.2009    3.4358 H       1  LIG1        0.0000
@<TRIPOS>BOND
     1     1     2    1
     2     2     3    1
     3     3     4    1
     4     4     5    1
     5     5     6    2
     6     6     7    1
     7     7     8    1
     8     8     9    1
     9     9    10    1
    10    10    11    1
    11    10    12    1
    12    12    13    2
    13    13    14    1
    14    14    15    2
    15    15    16    1
    16    16    17   ar
    17    17    18   ar
    18    18    19   ar
    19    19    20    1
    20    20    21    1
    21    20    22    1
    22    20    23    1
    23    19    24   ar
    24    24    25   ar
    25    25    16   ar
    26    15    26    1
    27    26    12    1
    28    26    27    1
    29    27    28    1
    30    28    29    1
    31    29    30    1
    32    30    31    1
    33    30    32    2
    34    32    33    1
    35    33    28    2
    36    33    34    1
    37     8    35    2
    38    35     5    1
    39     1    36    1
    40     1    37    1
    41     1    38    1
    42     3    39    1
    43     3    40    1
    44     4    41    1
    45     4    42    1
    46     9    43    1
    47     9    44    1
    48    11    45    1
    49    11    46    1
    50    11    47    1
    51    17    48    1
    52    18    49    1
    53    21    50    1
    54    21    51    1
    55    21    52    1
    56    22    53    1
    57    22    54    1
    58    22    55    1
    59    23    56    1
    60    23    57    1
    61    23    58    1
    62    24    59    1
    63    25    60    1
    64    27    61    1
    65    27    62    1
    66    31    63    1
    67    31    64    1
    68    31    65    1
    69    34    66    1
    70    34    67    1
    71    34    68    1
