@<TRIPOS>MOLECULE

  18   19
SMALL
USER_CHARGES
@<TRIPOS>ATOM
   1 C1           1.0000     1.0000     1.0000 C.3          1    LIG   0.0000
   2 N2           1.8469     1.8469     1.8469 N.pl3        1    LIG   0.0000
   3 C3           1.4210     2.8801     2.6272 C.2          1    LIG   0.0000
   4 O4           0.2709     3.2796     2.7538 O.2          1    LIG   0.0000
   5 O5           2.4807     3.3600     3.2170 O.2          1    LIG   0.0000
   6 C6           3.5805     2.7140     2.8735 C.ar         1    LIG   0.0000
   7 C7           4.9242     2.8407     3.2239 C.ar         1    LIG   0.0000
   8 C8           5.9069     2.0055     2.7011 C.ar         1    LIG   0.0000
   9 C9           5.5428     1.0033     1.8050 C.ar         1    LIG   0.0000
  10 C10          4.1903     0.8927     1.4777 C.ar         1    LIG   0.0000
  11 C11          3.1988     1.7300     1.9902 C.ar         1    LIG   0.0000
  12 H            0.0484     1.2978     1.0764 H            1    LIG   0.0000
  13 H            1.2978     1.0764     0.0484 H            1    LIG   0.0000
  14 H            1.0764     0.0484     1.2978 H            1    LIG   0.0000
  15 H            5.1902     3.5547     3.8716 H            1    LIG   0.0000
  16 H            6.8639     2.1236     2.9659 H            1    LIG   0.0000
  17 H            6.2243     0.3865     1.4111 H            1    LIG   0.0000
  18 H            3.9166     0.1728     0.8399 H            1    LIG   0.0000
@<TRIPOS>BOND
   1        1        2 1
   2        2        3 1
   3        3        4 2
   4        3        5 1
   5        5        6 1
   6        6        7 ar
   7        7        8 ar
   8        8        9 ar
   9        9       10 ar
  10       10       11 ar
  11       11        6 ar
  12       11        2 1
  13        1       12 1
  14        1       13 1
  15        1       14 1
  16        7       15 1
  17        8       16 1
  18        9       17 1
  19       10       18 1

