@<TRIPOS>MOLECULE

  62   64
SMALL
USER_CHARGES
@<TRIPOS>ATOM
   1 C1          -0.7594     0.6974    -1.2104 C.3          1    LIG   0.0000
   2 N2          -1.2729     0.6822     0.1670 N.4          1    LIG   1.0000
   3 C3          -1.2577    -0.6951     0.6804 C.3          1    LIG   0.0000
   4 C4          -0.4242     1.5309     1.0157 C.3          1    LIG   0.0000
   5 C5           1.0000     1.0000     1.0000 C.3          1    LIG   0.0000
   6 N6           1.8489     1.8489     1.8489 N.3          1    LIG   0.0000
   7 C7           1.6193     1.4365     3.2432 C.3          1    LIG   0.0000
   8 C8           2.4101     2.2821     4.2316 C.3          1    LIG   0.0000
   9 N9           2.3118     3.7160     3.9155 N.am         1    LIG   0.0000
  10 C10          2.3363     4.6361     4.9696 C.2          1    LIG   0.0000
  11 O11          2.4358     4.2494     6.1013 O.2          1    LIG   0.0000
  12 C12          2.2370     6.1251     4.6812 C.3          1    LIG   0.0000
  13 C13          2.2870     6.8992     5.9891 C.ar         1    LIG   0.0000
  14 C14          3.5141     7.3126     6.4953 C.ar         1    LIG   0.0000
  15 C15          3.5703     8.0204     7.6917 C.ar         1    LIG   0.0000
  16 C16          2.3882     8.3057     8.3668 C.ar         1    LIG   0.0000
  17 C17          2.4428     9.0798     9.6735 C.3          1    LIG   0.0000
  18 C18          3.2557     8.3114    10.7030 C.3          1    LIG   0.0000
  19 C19          3.3132     9.0892    12.0078 C.3          1    LIG   0.0000
  20 C20          3.9319    10.4595    11.7810 C.3          1    LIG   0.0000
  21 C21          3.1122    11.2229    10.7524 C.3          1    LIG   0.0000
  22 C22          3.0529    10.4530     9.4429 C.3          1    LIG   0.0000
  23 C23          1.1557     7.8967     7.8682 C.ar         1    LIG   0.0000
  24 C24          1.1096     7.1901     6.6710 C.ar         1    LIG   0.0000
  25 C25          2.1734     4.2146     2.5375 C.3          1    LIG   0.0000
  26 C26          1.4018     3.2390     1.6608 C.3          1    LIG   0.0000
  27 H           -2.2098     1.0315     0.1773 H            1    LIG   0.0000
  28 H           -1.3368     0.1200    -1.7877 H            1    LIG   0.0000
  29 H           -0.7697     1.6343    -1.5596 H            1    LIG   0.0000
  30 H            0.1775     0.3481    -1.2207 H            1    LIG   0.0000
  31 H           -1.8351    -1.2725     0.1031 H            1    LIG   0.0000
  32 H           -0.3208    -1.0444     0.6701 H            1    LIG   0.0000
  33 H           -1.6070    -0.7054     1.6174 H            1    LIG   0.0000
  34 H           -0.7735     1.5206     1.9526 H            1    LIG   0.0000
  35 H           -0.4345     2.4679     0.6664 H            1    LIG   0.0000
  36 H            1.0103     0.0630     1.3493 H            1    LIG   0.0000
  37 H            1.3493     1.0103     0.0630 H            1    LIG   0.0000
  38 H            1.8941     0.4805     3.3455 H            1    LIG   0.0000
  39 H            0.6450     1.5272     3.4494 H            1    LIG   0.0000
  40 H            2.0509     2.1270     5.1519 H            1    LIG   0.0000
  41 H            3.3710     2.0073     4.1981 H            1    LIG   0.0000
  42 H            3.0012     6.4037     4.0996 H            1    LIG   0.0000
  43 H            1.3745     6.3172     4.2130 H            1    LIG   0.0000
  44 H            4.3563     7.1012     5.9994 H            1    LIG   0.0000
  45 H            4.4496     8.3202     8.0616 H            1    LIG   0.0000
  46 H            1.5115     9.1949    10.0190 H            1    LIG   0.0000
  47 H            4.1842     8.1758    10.3573 H            1    LIG   0.0000
  48 H            2.8276     7.4225    10.8661 H            1    LIG   0.0000
  49 H            3.8669     8.5830    12.6690 H            1    LIG   0.0000
  50 H            2.3862     9.2013    12.3658 H            1    LIG   0.0000
  51 H            4.8682    10.3512    11.4470 H            1    LIG   0.0000
  52 H            3.9419    10.9673    12.6424 H            1    LIG   0.0000
  53 H            2.1838    11.3517    11.1009 H            1    LIG   0.0000
  54 H            3.5345    12.1149    10.5911 H            1    LIG   0.0000
  55 H            2.4924    10.9584     8.7869 H            1    LIG   0.0000
  56 H            3.9783    10.3472     9.0789 H            1    LIG   0.0000
  57 H            0.3134     8.1080     8.3642 H            1    LIG   0.0000
  58 H            0.2302     6.8913     6.3004 H            1    LIG   0.0000
  59 H            3.0848     4.3489     2.1484 H            1    LIG   0.0000
  60 H            1.6869     5.0881     2.5562 H            1    LIG   0.0000
  61 H            0.4304     3.2987     1.8904 H            1    LIG   0.0000
  62 H            1.5341     3.4930     0.7027 H            1    LIG   0.0000
@<TRIPOS>BOND
   1        1        2 1
   2        2        3 1
   3        2        4 1
   4        4        5 1
   5        5        6 1
   6        6        7 1
   7        7        8 1
   8        8        9 1
   9        9       10 am
  10       10       11 2
  11       10       12 1
  12       12       13 1
  13       13       14 ar
  14       14       15 ar
  15       15       16 ar
  16       16       17 1
  17       17       18 1
  18       18       19 1
  19       19       20 1
  20       20       21 1
  21       21       22 1
  22       22       17 1
  23       16       23 ar
  24       23       24 ar
  25       24       13 ar
  26        9       25 1
  27       25       26 1
  28       26        6 1
  29        2       27 1
  30        1       28 1
  31        1       29 1
  32        1       30 1
  33        3       31 1
  34        3       32 1
  35        3       33 1
  36        4       34 1
  37        4       35 1
  38        5       36 1
  39        5       37 1
  40        7       38 1
  41        7       39 1
  42        8       40 1
  43        8       41 1
  44       12       42 1
  45       12       43 1
  46       14       44 1
  47       15       45 1
  48       17       46 1
  49       18       47 1
  50       18       48 1
  51       19       49 1
  52       19       50 1
  53       20       51 1
  54       20       52 1
  55       21       53 1
  56       21       54 1
  57       22       55 1
  58       22       56 1
  59       23       57 1
  60       24       58 1
  61       25       59 1
  62       25       60 1
  63       26       61 1
  64       26       62 1

@<TRIPOS>MOLECULE

  62   64
SMALL
USER_CHARGES
@<TRIPOS>ATOM
   1 C1          -0.7594     0.6974    -1.2104 C.3          1    LIG   0.0000
   2 N2          -1.2729     0.6822     0.1670 N.4          1    LIG   1.0000
   3 C3          -1.2577    -0.6951     0.6804 C.3          1    LIG   0.0000
   4 C4          -0.4242     1.5309     1.0157 C.3          1    LIG   0.0000
   5 C5           1.0000     1.0000     1.0000 C.3          1    LIG   0.0000
   6 N6           1.8489     1.8489     1.8489 N.3          1    LIG   0.0000
   7 C7           1.6193     1.4365     3.2432 C.3          1    LIG   0.0000
   8 C8           2.4101     2.2821     4.2316 C.3          1    LIG   0.0000
   9 N9           2.3118     3.7160     3.9155 N.am         1    LIG   0.0000
  10 C10          2.3363     4.6361     4.9696 C.2          1    LIG   0.0000
  11 O11          2.4358     4.2494     6.1013 O.2          1    LIG   0.0000
  12 C12          2.2370     6.1251     4.6812 C.3          1    LIG   0.0000
  13 C13          0.8119     6.5950     4.9269 C.ar         1    LIG   0.0000
  14 C14          0.4469     7.0487     6.1894 C.ar         1    LIG   0.0000
  15 C15         -0.8548     7.4797     6.4244 C.ar         1    LIG   0.0000
  16 C16         -1.7770     7.4500     5.3837 C.ar         1    LIG   0.0000
  17 C17         -3.2003     7.9208     5.6336 C.3          1    LIG   0.0000
  18 C18         -3.8546     7.0625     6.7042 C.3          1    LIG   0.0000
  19 C19         -5.2765     7.5377     6.9562 C.3          1    LIG   0.0000
  20 C20         -5.2789     8.9947     7.3910 C.3          1    LIG   0.0000
  21 C21         -4.6254     9.8471     6.3145 C.3          1    LIG   0.0000
  22 C22         -3.2013     9.3803     6.0590 C.3          1    LIG   0.0000
  23 C23         -1.4214     6.9982     4.1170 C.ar         1    LIG   0.0000
  24 C24         -0.1175     6.5699     3.8916 C.ar         1    LIG   0.0000
  25 C25          2.1734     4.2146     2.5375 C.3          1    LIG   0.0000
  26 C26          1.4018     3.2390     1.6608 C.3          1    LIG   0.0000
  27 H           -2.2098     1.0315     0.1773 H            1    LIG   0.0000
  28 H           -1.3368     0.1200    -1.7877 H            1    LIG   0.0000
  29 H           -0.7697     1.6343    -1.5596 H            1    LIG   0.0000
  30 H            0.1775     0.3481    -1.2207 H            1    LIG   0.0000
  31 H           -1.8351    -1.2725     0.1031 H            1    LIG   0.0000
  32 H           -0.3208    -1.0444     0.6701 H            1    LIG   0.0000
  33 H           -1.6070    -0.7054     1.6174 H            1    LIG   0.0000
  34 H           -0.7735     1.5206     1.9526 H            1    LIG   0.0000
  35 H           -0.4345     2.4679     0.6664 H            1    LIG   0.0000
  36 H            1.0103     0.0630     1.3493 H            1    LIG   0.0000
  37 H            1.3493     1.0103     0.0630 H            1    LIG   0.0000
  38 H            1.8941     0.4805     3.3455 H            1    LIG   0.0000
  39 H            0.6450     1.5272     3.4494 H            1    LIG   0.0000
  40 H            2.0509     2.1270     5.1519 H            1    LIG   0.0000
  41 H            3.3710     2.0073     4.1981 H            1    LIG   0.0000
  42 H            2.8608     6.6236     5.2832 H            1    LIG   0.0000
  43 H            2.4850     6.2973     3.7279 H            1    LIG   0.0000
  44 H            1.1202     7.0653     6.9286 H            1    LIG   0.0000
  45 H           -1.1240     7.8067     7.3302 H            1    LIG   0.0000
  46 H           -3.7227     7.8320     4.7856 H            1    LIG   0.0000
  47 H           -3.3277     7.1312     7.5513 H            1    LIG   0.0000
  48 H           -3.8731     6.1103     6.3994 H            1    LIG   0.0000
  49 H           -5.6881     6.9784     7.6758 H            1    LIG   0.0000
  50 H           -5.8093     7.4438     6.1152 H            1    LIG   0.0000
  51 H           -4.7683     9.0882     8.2457 H            1    LIG   0.0000
  52 H           -6.2212     9.2991     7.5306 H            1    LIG   0.0000
  53 H           -5.1535     9.7712     5.4687 H            1    LIG   0.0000
  54 H           -4.6105    10.8011     6.6138 H            1    LIG   0.0000
  55 H           -2.7956     9.9368     5.3340 H            1    LIG   0.0000
  56 H           -2.6646     9.4814     6.8967 H            1    LIG   0.0000
  57 H           -2.0948     6.9814     3.3779 H            1    LIG   0.0000
  58 H            0.1522     6.2440     2.9855 H            1    LIG   0.0000
  59 H            3.0848     4.3489     2.1484 H            1    LIG   0.0000
  60 H            1.6869     5.0881     2.5562 H            1    LIG   0.0000
  61 H            0.4304     3.2987     1.8904 H            1    LIG   0.0000
  62 H            1.5341     3.4930     0.7027 H            1    LIG   0.0000
@<TRIPOS>BOND
   1        1        2 1
   2        2        3 1
   3        2        4 1
   4        4        5 1
   5        5        6 1
   6        6        7 1
   7        7        8 1
   8        8        9 1
   9        9       10 am
  10       10       11 2
  11       10       12 1
  12       12       13 1
  13       13       14 ar
  14       14       15 ar
  15       15       16 ar
  16       16       17 1
  17       17       18 1
  18       18       19 1
  19       19       20 1
  20       20       21 1
  21       21       22 1
  22       22       17 1
  23       16       23 ar
  24       23       24 ar
  25       24       13 ar
  26        9       25 1
  27       25       26 1
  28       26        6 1
  29        2       27 1
  30        1       28 1
  31        1       29 1
  32        1       30 1
  33        3       31 1
  34        3       32 1
  35        3       33 1
  36        4       34 1
  37        4       35 1
  38        5       36 1
  39        5       37 1
  40        7       38 1
  41        7       39 1
  42        8       40 1
  43        8       41 1
  44       12       42 1
  45       12       43 1
  46       14       44 1
  47       15       45 1
  48       17       46 1
  49       18       47 1
  50       18       48 1
  51       19       49 1
  52       19       50 1
  53       20       51 1
  54       20       52 1
  55       21       53 1
  56       21       54 1
  57       22       55 1
  58       22       56 1
  59       23       57 1
  60       24       58 1
  61       25       59 1
  62       25       60 1
  63       26       61 1
  64       26       62 1

@<TRIPOS>MOLECULE

  62   64
SMALL
USER_CHARGES
@<TRIPOS>ATOM
   1 C1          -0.7594     0.6974    -1.2104 C.3          1    LIG   0.0000
   2 N2          -1.2729     0.6822     0.1670 N.4          1    LIG   1.0000
   3 C3          -1.2577    -0.6951     0.6804 C.3          1    LIG   0.0000
   4 C4          -0.4242     1.5309     1.0157 C.3          1    LIG   0.0000
   5 C5           1.0000     1.0000     1.0000 C.3          1    LIG   0.0000
   6 N6           1.8489     1.8489     1.8489 N.3          1    LIG   0.0000
   7 C7           1.6193     1.4365     3.2432 C.3          1    LIG   0.0000
   8 C8           2.4101     2.2821     4.2316 C.3          1    LIG   0.0000
   9 N9           2.3118     3.7160     3.9155 N.am         1    LIG   0.0000
  10 C10          2.3363     4.6361     4.9696 C.2          1    LIG   0.0000
  11 O11          2.4358     4.2494     6.1013 O.2          1    LIG   0.0000
  12 C12          2.2370     6.1251     4.6812 C.3          1    LIG   0.0000
  13 C13          3.6247     6.7447     4.7308 C.ar         1    LIG   0.0000
  14 C14          4.3911     6.8050     3.5723 C.ar         1    LIG   0.0000
  15 C15          5.6624     7.3689     3.6077 C.ar         1    LIG   0.0000
  16 C16          6.1494     7.8679     4.8112 C.ar         1    LIG   0.0000
  17 C17          7.5369     8.4865     4.8561 C.3          1    LIG   0.0000
  18 C18          8.5817     7.4569     4.4571 C.3          1    LIG   0.0000
  19 C19          9.9683     8.0785     4.4981 C.3          1    LIG   0.0000
  20 C20         10.0403     9.2752     3.5627 C.3          1    LIG   0.0000
  21 C21          8.9945    10.3015     3.9695 C.3          1    LIG   0.0000
  22 C22          7.6041     9.6883     3.9275 C.3          1    LIG   0.0000
  23 C23          5.3901     7.8126     5.9755 C.ar         1    LIG   0.0000
  24 C24          4.1200     7.2474     5.9300 C.ar         1    LIG   0.0000
  25 C25          2.1734     4.2146     2.5375 C.3          1    LIG   0.0000
  26 C26          1.4018     3.2390     1.6608 C.3          1    LIG   0.0000
  27 H           -2.2098     1.0315     0.1773 H            1    LIG   0.0000
  28 H           -1.3368     0.1200    -1.7877 H            1    LIG   0.0000
  29 H           -0.7697     1.6343    -1.5596 H            1    LIG   0.0000
  30 H            0.1775     0.3481    -1.2207 H            1    LIG   0.0000
  31 H           -1.8351    -1.2725     0.1031 H            1    LIG   0.0000
  32 H           -0.3208    -1.0444     0.6701 H            1    LIG   0.0000
  33 H           -1.6070    -0.7054     1.6174 H            1    LIG   0.0000
  34 H           -0.7735     1.5206     1.9526 H            1    LIG   0.0000
  35 H           -0.4345     2.4679     0.6664 H            1    LIG   0.0000
  36 H            1.0103     0.0630     1.3493 H            1    LIG   0.0000
  37 H            1.3493     1.0103     0.0630 H            1    LIG   0.0000
  38 H            1.8941     0.4805     3.3455 H            1    LIG   0.0000
  39 H            0.6450     1.5272     3.4494 H            1    LIG   0.0000
  40 H            2.0509     2.1270     5.1519 H            1    LIG   0.0000
  41 H            3.3710     2.0073     4.1981 H            1    LIG   0.0000
  42 H            1.8426     6.2631     3.7727 H            1    LIG   0.0000
  43 H            1.6534     6.5594     5.3674 H            1    LIG   0.0000
  44 H            4.0285     6.4429     2.7136 H            1    LIG   0.0000
  45 H            6.2190     7.4149     2.7783 H            1    LIG   0.0000
  46 H            7.7242     8.7903     5.7903 H            1    LIG   0.0000
  47 H            8.3910     7.1341     3.5301 H            1    LIG   0.0000
  48 H            8.5459     6.6857     5.0927 H            1    LIG   0.0000
  49 H           10.6433     7.3974     4.2144 H            1    LIG   0.0000
  50 H           10.1681     8.3773     5.4313 H            1    LIG   0.0000
  51 H            9.8661     8.9757     2.6247 H            1    LIG   0.0000
  52 H           10.9501     9.6868     3.6177 H            1    LIG   0.0000
  53 H            9.1871    10.6175     4.8984 H            1    LIG   0.0000
  54 H            9.0316    11.0769     3.3392 H            1    LIG   0.0000
  55 H            6.9328    10.3698     4.2190 H            1    LIG   0.0000
  56 H            7.3989     9.3967     2.9933 H            1    LIG   0.0000
  57 H            5.7528     8.1745     6.8342 H            1    LIG   0.0000
  58 H            3.5628     7.2025     6.7591 H            1    LIG   0.0000
  59 H            3.0848     4.3489     2.1484 H            1    LIG   0.0000
  60 H            1.6869     5.0881     2.5562 H            1    LIG   0.0000
  61 H            0.4304     3.2987     1.8904 H            1    LIG   0.0000
  62 H            1.5341     3.4930     0.7027 H            1    LIG   0.0000
@<TRIPOS>BOND
   1        1        2 1
   2        2        3 1
   3        2        4 1
   4        4        5 1
   5        5        6 1
   6        6        7 1
   7        7        8 1
   8        8        9 1
   9        9       10 am
  10       10       11 2
  11       10       12 1
  12       12       13 1
  13       13       14 ar
  14       14       15 ar
  15       15       16 ar
  16       16       17 1
  17       17       18 1
  18       18       19 1
  19       19       20 1
  20       20       21 1
  21       21       22 1
  22       22       17 1
  23       16       23 ar
  24       23       24 ar
  25       24       13 ar
  26        9       25 1
  27       25       26 1
  28       26        6 1
  29        2       27 1
  30        1       28 1
  31        1       29 1
  32        1       30 1
  33        3       31 1
  34        3       32 1
  35        3       33 1
  36        4       34 1
  37        4       35 1
  38        5       36 1
  39        5       37 1
  40        7       38 1
  41        7       39 1
  42        8       40 1
  43        8       41 1
  44       12       42 1
  45       12       43 1
  46       14       44 1
  47       15       45 1
  48       17       46 1
  49       18       47 1
  50       18       48 1
  51       19       49 1
  52       19       50 1
  53       20       51 1
  54       20       52 1
  55       21       53 1
  56       21       54 1
  57       22       55 1
  58       22       56 1
  59       23       57 1
  60       24       58 1
  61       25       59 1
  62       25       60 1
  63       26       61 1
  64       26       62 1

@<TRIPOS>MOLECULE

  62   64
SMALL
USER_CHARGES
@<TRIPOS>ATOM
   1 C1          -0.7594     0.6974    -1.2104 C.3          1    LIG   0.0000
   2 N2          -1.2729     0.6822     0.1670 N.4          1    LIG   1.0000
   3 C3          -1.2577    -0.6951     0.6804 C.3          1    LIG   0.0000
   4 C4          -0.4242     1.5309     1.0157 C.3          1    LIG   0.0000
   5 C5           1.0000     1.0000     1.0000 C.3          1    LIG   0.0000
   6 N6           1.8489     1.8489     1.8489 N.3          1    LIG   0.0000
   7 C7           1.6193     1.4365     3.2432 C.3          1    LIG   0.0000
   8 C8           2.4101     2.2821     4.2316 C.3          1    LIG   0.0000
   9 N9           2.3118     3.7160     3.9155 N.am         1    LIG   0.0000
  10 C10          2.3363     4.6361     4.9696 C.2          1    LIG   0.0000
  11 O11          2.2579     5.8117     4.7419 O.2          1    LIG   0.0000
  12 C12          2.4624     4.1463     6.4031 C.3          1    LIG   0.0000
  13 C13          2.4648     5.3381     7.3475 C.ar         1    LIG   0.0000
  14 C14          1.2614     5.8118     7.8577 C.ar         1    LIG   0.0000
  15 C15          1.2532     6.9022     8.7215 C.ar         1    LIG   0.0000
  16 C16          2.4590     7.5050     9.0640 C.ar         1    LIG   0.0000
  17 C17          2.4569     8.6958    10.0084 C.3          1    LIG   0.0000
  18 C18          1.6540     9.8383     9.4076 C.3          1    LIG   0.0000
  19 C19          1.6490    11.0267    10.3555 C.3          1    LIG   0.0000
  20 C20          1.0563    10.6307    11.6986 C.3          1    LIG   0.0000
  21 C21          1.8659     9.4895    12.2943 C.3          1    LIG   0.0000
  22 C22          1.8727     8.2954    11.3536 C.3          1    LIG   0.0000
  23 C23          3.6682     7.0381     8.5590 C.ar         1    LIG   0.0000
  24 C24          3.6663     5.9470     7.6965 C.ar         1    LIG   0.0000
  25 C25          2.1734     4.2146     2.5375 C.3          1    LIG   0.0000
  26 C26          1.4018     3.2390     1.6608 C.3          1    LIG   0.0000
  27 H           -2.2098     1.0315     0.1773 H            1    LIG   0.0000
  28 H           -1.3368     0.1200    -1.7877 H            1    LIG   0.0000
  29 H           -0.7697     1.6343    -1.5596 H            1    LIG   0.0000
  30 H            0.1775     0.3481    -1.2207 H            1    LIG   0.0000
  31 H           -1.8351    -1.2725     0.1031 H            1    LIG   0.0000
  32 H           -0.3208    -1.0444     0.6701 H            1    LIG   0.0000
  33 H           -1.6070    -0.7054     1.6174 H            1    LIG   0.0000
  34 H           -0.7735     1.5206     1.9526 H            1    LIG   0.0000
  35 H           -0.4345     2.4679     0.6664 H            1    LIG   0.0000
  36 H            1.0103     0.0630     1.3493 H            1    LIG   0.0000
  37 H            1.3493     1.0103     0.0630 H            1    LIG   0.0000
  38 H            1.8941     0.4805     3.3455 H            1    LIG   0.0000
  39 H            0.6450     1.5272     3.4494 H            1    LIG   0.0000
  40 H            2.0509     2.1270     5.1519 H            1    LIG   0.0000
  41 H            3.3710     2.0073     4.1981 H            1    LIG   0.0000
  42 H            1.6896     3.5501     6.6208 H            1    LIG   0.0000
  43 H            3.3164     3.6367     6.5073 H            1    LIG   0.0000
  44 H            0.4017     5.3687     7.6037 H            1    LIG   0.0000
  45 H            0.3911     7.2484     9.0917 H            1    LIG   0.0000
  46 H            3.3994     9.0009    10.1444 H            1    LIG   0.0000
  47 H            0.7138     9.5357     9.2513 H            1    LIG   0.0000
  48 H            2.0656    10.1105     8.5378 H            1    LIG   0.0000
  49 H            1.1014    11.7630     9.9580 H            1    LIG   0.0000
  50 H            2.5874    11.3447    10.4903 H            1    LIG   0.0000
  51 H            0.1092    10.3362    11.5710 H            1    LIG   0.0000
  52 H            1.0808    11.4154    12.3180 H            1    LIG   0.0000
  53 H            2.8059     9.7959    12.4444 H            1    LIG   0.0000
  54 H            1.4602     9.2186    13.1673 H            1    LIG   0.0000
  55 H            2.4272     7.5641    11.7509 H            1    LIG   0.0000
  56 H            0.9359     7.9705    11.2242 H            1    LIG   0.0000
  57 H            4.5279     7.4814     8.8129 H            1    LIG   0.0000
  58 H            4.5284     5.6000     7.3272 H            1    LIG   0.0000
  59 H            3.0848     4.3489     2.1484 H            1    LIG   0.0000
  60 H            1.6869     5.0881     2.5562 H            1    LIG   0.0000
  61 H            0.4304     3.2987     1.8904 H            1    LIG   0.0000
  62 H            1.5341     3.4930     0.7027 H            1    LIG   0.0000
@<TRIPOS>BOND
   1        1        2 1
   2        2        3 1
   3        2        4 1
   4        4        5 1
   5        5        6 1
   6        6        7 1
   7        7        8 1
   8        8        9 1
   9        9       10 am
  10       10       11 2
  11       10       12 1
  12       12       13 1
  13       13       14 ar
  14       14       15 ar
  15       15       16 ar
  16       16       17 1
  17       17       18 1
  18       18       19 1
  19       19       20 1
  20       20       21 1
  21       21       22 1
  22       22       17 1
  23       16       23 ar
  24       23       24 ar
  25       24       13 ar
  26        9       25 1
  27       25       26 1
  28       26        6 1
  29        2       27 1
  30        1       28 1
  31        1       29 1
  32        1       30 1
  33        3       31 1
  34        3       32 1
  35        3       33 1
  36        4       34 1
  37        4       35 1
  38        5       36 1
  39        5       37 1
  40        7       38 1
  41        7       39 1
  42        8       40 1
  43        8       41 1
  44       12       42 1
  45       12       43 1
  46       14       44 1
  47       15       45 1
  48       17       46 1
  49       18       47 1
  50       18       48 1
  51       19       49 1
  52       19       50 1
  53       20       51 1
  54       20       52 1
  55       21       53 1
  56       21       54 1
  57       22       55 1
  58       22       56 1
  59       23       57 1
  60       24       58 1
  61       25       59 1
  62       25       60 1
  63       26       61 1
  64       26       62 1

@<TRIPOS>MOLECULE

  62   64
SMALL
USER_CHARGES
@<TRIPOS>ATOM
   1 C1          -0.7594     0.6974    -1.2104 C.3          1    LIG   0.0000
   2 N2          -1.2729     0.6822     0.1670 N.4          1    LIG   1.0000
   3 C3          -1.2577    -0.6951     0.6804 C.3          1    LIG   0.0000
   4 C4          -0.4242     1.5309     1.0157 C.3          1    LIG   0.0000
   5 C5           1.0000     1.0000     1.0000 C.3          1    LIG   0.0000
   6 N6           1.8489     1.8489     1.8489 N.3          1    LIG   0.0000
   7 C7           1.6193     1.4365     3.2432 C.3          1    LIG   0.0000
   8 C8           2.4101     2.2821     4.2316 C.3          1    LIG   0.0000
   9 N9           2.3118     3.7160     3.9155 N.am         1    LIG   0.0000
  10 C10          2.3363     4.6361     4.9696 C.2          1    LIG   0.0000
  11 O11          2.2579     5.8117     4.7419 O.2          1    LIG   0.0000
  12 C12          2.4624     4.1463     6.4031 C.3          1    LIG   0.0000
  13 C13          3.9039     4.2932     6.8640 C.ar         1    LIG   0.0000
  14 C14          4.3125     5.4738     7.4740 C.ar         1    LIG   0.0000
  15 C15          5.6296     5.6181     7.8981 C.ar         1    LIG   0.0000
  16 C16          6.5231     4.5700     7.7039 C.ar         1    LIG   0.0000
  17 C17          7.9629     4.7210     8.1663 C.3          1    LIG   0.0000
  18 C18          8.6254     5.8825     7.4432 C.3          1    LIG   0.0000
  19 C19         10.0639     6.0350     7.9103 C.3          1    LIG   0.0000
  20 C20         10.1115     6.2682     9.4121 C.3          1    LIG   0.0000
  21 C21          9.4496     5.1015    10.1285 C.3          1    LIG   0.0000
  22 C22          8.0089     4.9446     9.6694 C.3          1    LIG   0.0000
  23 C23          6.1238     3.3848     7.0950 C.ar         1    LIG   0.0000
  24 C24          4.8047     3.2496     6.6749 C.ar         1    LIG   0.0000
  25 C25          2.1734     4.2146     2.5375 C.3          1    LIG   0.0000
  26 C26          1.4018     3.2390     1.6608 C.3          1    LIG   0.0000
  27 H           -2.2098     1.0315     0.1773 H            1    LIG   0.0000
  28 H           -1.3368     0.1200    -1.7877 H            1    LIG   0.0000
  29 H           -0.7697     1.6343    -1.5596 H            1    LIG   0.0000
  30 H            0.1775     0.3481    -1.2207 H            1    LIG   0.0000
  31 H           -1.8351    -1.2725     0.1031 H            1    LIG   0.0000
  32 H           -0.3208    -1.0444     0.6701 H            1    LIG   0.0000
  33 H           -1.6070    -0.7054     1.6174 H            1    LIG   0.0000
  34 H           -0.7735     1.5206     1.9526 H            1    LIG   0.0000
  35 H           -0.4345     2.4679     0.6664 H            1    LIG   0.0000
  36 H            1.0103     0.0630     1.3493 H            1    LIG   0.0000
  37 H            1.3493     1.0103     0.0630 H            1    LIG   0.0000
  38 H            1.8941     0.4805     3.3455 H            1    LIG   0.0000
  39 H            0.6450     1.5272     3.4494 H            1    LIG   0.0000
  40 H            2.0509     2.1270     5.1519 H            1    LIG   0.0000
  41 H            3.3710     2.0073     4.1981 H            1    LIG   0.0000
  42 H            1.8663     4.6895     6.9945 H            1    LIG   0.0000
  43 H            2.1932     3.1845     6.4516 H            1    LIG   0.0000
  44 H            3.6596     6.2193     7.6079 H            1    LIG   0.0000
  45 H            5.9301     6.4649     8.3371 H            1    LIG   0.0000
  46 H            8.4605     3.8809     7.9502 H            1    LIG   0.0000
  47 H            8.1227     6.7244     7.6394 H            1    LIG   0.0000
  48 H            8.6138     5.7092     6.4584 H            1    LIG   0.0000
  49 H           10.4815     6.8140     7.4425 H            1    LIG   0.0000
  50 H           10.5720     5.2024     7.6898 H            1    LIG   0.0000
  51 H            9.6259     7.1139     9.6335 H            1    LIG   0.0000
  52 H           11.0639     6.3435     9.7075 H            1    LIG   0.0000
  53 H            9.9532     4.2618     9.9253 H            1    LIG   0.0000
  54 H            9.4646     5.2690    11.1142 H            1    LIG   0.0000
  55 H            7.5971     4.1604    10.1335 H            1    LIG   0.0000
  56 H            7.4969     5.7730     9.8966 H            1    LIG   0.0000
  57 H            6.7768     2.6394     6.9609 H            1    LIG   0.0000
  58 H            4.5038     2.4025     6.2369 H            1    LIG   0.0000
  59 H            3.0848     4.3489     2.1484 H            1    LIG   0.0000
  60 H            1.6869     5.0881     2.5562 H            1    LIG   0.0000
  61 H            0.4304     3.2987     1.8904 H            1    LIG   0.0000
  62 H            1.5341     3.4930     0.7027 H            1    LIG   0.0000
@<TRIPOS>BOND
   1        1        2 1
   2        2        3 1
   3        2        4 1
   4        4        5 1
   5        5        6 1
   6        6        7 1
   7        7        8 1
   8        8        9 1
   9        9       10 am
  10       10       11 2
  11       10       12 1
  12       12       13 1
  13       13       14 ar
  14       14       15 ar
  15       15       16 ar
  16       16       17 1
  17       17       18 1
  18       18       19 1
  19       19       20 1
  20       20       21 1
  21       21       22 1
  22       22       17 1
  23       16       23 ar
  24       23       24 ar
  25       24       13 ar
  26        9       25 1
  27       25       26 1
  28       26        6 1
  29        2       27 1
  30        1       28 1
  31        1       29 1
  32        1       30 1
  33        3       31 1
  34        3       32 1
  35        3       33 1
  36        4       34 1
  37        4       35 1
  38        5       36 1
  39        5       37 1
  40        7       38 1
  41        7       39 1
  42        8       40 1
  43        8       41 1
  44       12       42 1
  45       12       43 1
  46       14       44 1
  47       15       45 1
  48       17       46 1
  49       18       47 1
  50       18       48 1
  51       19       49 1
  52       19       50 1
  53       20       51 1
  54       20       52 1
  55       21       53 1
  56       21       54 1
  57       22       55 1
  58       22       56 1
  59       23       57 1
  60       24       58 1
  61       25       59 1
  62       25       60 1
  63       26       61 1
  64       26       62 1

@<TRIPOS>MOLECULE

  62   64
SMALL
USER_CHARGES
@<TRIPOS>ATOM
   1 C1          -0.7594     0.6974    -1.2104 C.3          1    LIG   0.0000
   2 N2          -1.2729     0.6822     0.1670 N.4          1    LIG   1.0000
   3 C3          -1.2577    -0.6951     0.6804 C.3          1    LIG   0.0000
   4 C4          -0.4242     1.5309     1.0157 C.3          1    LIG   0.0000
   5 C5           1.0000     1.0000     1.0000 C.3          1    LIG   0.0000
   6 N6           1.8489     1.8489     1.8489 N.3          1    LIG   0.0000
   7 C7           1.6193     1.4365     3.2432 C.3          1    LIG   0.0000
   8 C8           2.4101     2.2821     4.2316 C.3          1    LIG   0.0000
   9 N9           2.3118     3.7160     3.9155 N.am         1    LIG   0.0000
  10 C10          2.3363     4.6361     4.9696 C.2          1    LIG   0.0000
  11 O11          2.2579     5.8117     4.7419 O.2          1    LIG   0.0000
  12 C12          2.4624     4.1463     6.4031 C.3          1    LIG   0.0000
  13 C13          1.0911     4.1435     7.0601 C.ar         1    LIG   0.0000
  14 C14          0.2959     3.0056     6.9839 C.ar         1    LIG   0.0000
  15 C15         -0.9606     2.9936     7.5808 C.ar         1    LIG   0.0000
  16 C16         -1.4040     4.1293     8.2503 C.ar         1    LIG   0.0000
  17 C17         -2.7752     4.1220     8.9058 C.3          1    LIG   0.0000
  18 C18         -3.8536     3.8904     7.8598 C.3          1    LIG   0.0000
  19 C19         -5.2240     3.8788     8.5177 C.3          1    LIG   0.0000
  20 C20         -5.2931     2.7918     9.5787 C.3          1    LIG   0.0000
  21 C21         -4.2134     3.0315    10.6225 C.3          1    LIG   0.0000
  22 C22         -2.8391     3.0410     9.9727 C.3          1    LIG   0.0000
  23 C23         -0.6156     5.2725     8.3324 C.ar         1    LIG   0.0000
  24 C24          0.6394     5.2747     7.7329 C.ar         1    LIG   0.0000
  25 C25          2.1734     4.2146     2.5375 C.3          1    LIG   0.0000
  26 C26          1.4018     3.2390     1.6608 C.3          1    LIG   0.0000
  27 H           -2.2098     1.0315     0.1773 H            1    LIG   0.0000
  28 H           -1.3368     0.1200    -1.7877 H            1    LIG   0.0000
  29 H           -0.7697     1.6343    -1.5596 H            1    LIG   0.0000
  30 H            0.1775     0.3481    -1.2207 H            1    LIG   0.0000
  31 H           -1.8351    -1.2725     0.1031 H            1    LIG   0.0000
  32 H           -0.3208    -1.0444     0.6701 H            1    LIG   0.0000
  33 H           -1.6070    -0.7054     1.6174 H            1    LIG   0.0000
  34 H           -0.7735     1.5206     1.9526 H            1    LIG   0.0000
  35 H           -0.4345     2.4679     0.6664 H            1    LIG   0.0000
  36 H            1.0103     0.0630     1.3493 H            1    LIG   0.0000
  37 H            1.3493     1.0103     0.0630 H            1    LIG   0.0000
  38 H            1.8941     0.4805     3.3455 H            1    LIG   0.0000
  39 H            0.6450     1.5272     3.4494 H            1    LIG   0.0000
  40 H            2.0509     2.1270     5.1519 H            1    LIG   0.0000
  41 H            3.3710     2.0073     4.1981 H            1    LIG   0.0000
  42 H            2.8357     3.2186     6.4068 H            1    LIG   0.0000
  43 H            3.0738     4.7537     6.9103 H            1    LIG   0.0000
  44 H            0.6272     2.1957     6.4998 H            1    LIG   0.0000
  45 H           -1.5378     2.1787     7.5292 H            1    LIG   0.0000
  46 H           -2.9306     5.0105     9.3376 H            1    LIG   0.0000
  47 H           -3.6950     3.0115     7.4099 H            1    LIG   0.0000
  48 H           -3.8188     4.6236     7.1806 H            1    LIG   0.0000
  49 H           -5.9218     3.7056     7.8226 H            1    LIG   0.0000
  50 H           -5.3921     4.7673     8.9447 H            1    LIG   0.0000
  51 H           -5.1507     1.8992     9.1510 H            1    LIG   0.0000
  52 H           -6.1913     2.8115    10.0179 H            1    LIG   0.0000
  53 H           -4.3741     3.9133    11.0659 H            1    LIG   0.0000
  54 H           -4.2492     2.3030    11.3066 H            1    LIG   0.0000
  55 H           -2.1448     3.2218    10.6693 H            1    LIG   0.0000
  56 H           -2.6655     2.1503     9.5524 H            1    LIG   0.0000
  57 H           -0.9471     6.0824     8.8163 H            1    LIG   0.0000
  58 H            1.2172     6.0892     7.7854 H            1    LIG   0.0000
  59 H            3.0848     4.3489     2.1484 H            1    LIG   0.0000
  60 H            1.6869     5.0881     2.5562 H            1    LIG   0.0000
  61 H            0.4304     3.2987     1.8904 H            1    LIG   0.0000
  62 H            1.5341     3.4930     0.7027 H            1    LIG   0.0000
@<TRIPOS>BOND
   1        1        2 1
   2        2        3 1
   3        2        4 1
   4        4        5 1
   5        5        6 1
   6        6        7 1
   7        7        8 1
   8        8        9 1
   9        9       10 am
  10       10       11 2
  11       10       12 1
  12       12       13 1
  13       13       14 ar
  14       14       15 ar
  15       15       16 ar
  16       16       17 1
  17       17       18 1
  18       18       19 1
  19       19       20 1
  20       20       21 1
  21       21       22 1
  22       22       17 1
  23       16       23 ar
  24       23       24 ar
  25       24       13 ar
  26        9       25 1
  27       25       26 1
  28       26        6 1
  29        2       27 1
  30        1       28 1
  31        1       29 1
  32        1       30 1
  33        3       31 1
  34        3       32 1
  35        3       33 1
  36        4       34 1
  37        4       35 1
  38        5       36 1
  39        5       37 1
  40        7       38 1
  41        7       39 1
  42        8       40 1
  43        8       41 1
  44       12       42 1
  45       12       43 1
  46       14       44 1
  47       15       45 1
  48       17       46 1
  49       18       47 1
  50       18       48 1
  51       19       49 1
  52       19       50 1
  53       20       51 1
  54       20       52 1
  55       21       53 1
  56       21       54 1
  57       22       55 1
  58       22       56 1
  59       23       57 1
  60       24       58 1
  61       25       59 1
  62       25       60 1
  63       26       61 1
  64       26       62 1

@<TRIPOS>MOLECULE

  62   64
SMALL
USER_CHARGES
@<TRIPOS>ATOM
   1 C1          -0.7594     0.6974    -1.2104 C.3          1    LIG   0.0000
   2 N2          -1.2729     0.6822     0.1670 N.4          1    LIG   1.0000
   3 C3          -1.2577    -0.6951     0.6804 C.3          1    LIG   0.0000
   4 C4          -0.4242     1.5309     1.0157 C.3          1    LIG   0.0000
   5 C5           1.0000     1.0000     1.0000 C.3          1    LIG   0.0000
   6 N6           1.8486     1.8486     1.8486 N.3          1    LIG   0.0000
   7 C7           1.6302     1.4481     3.2491 C.3          1    LIG   0.0000
   8 C8           2.5181     2.2216     4.2131 C.3          1    LIG   0.0000
   9 N9           3.9062     2.2993     3.7299 N.am         1    LIG   0.0000
  10 C10          4.9499     2.3158     4.6626 C.2          1    LIG   0.0000
  11 O11          6.0882     2.3788     4.2882 O.2          1    LIG   0.0000
  12 C12          4.6413     2.2540     6.1497 C.3          1    LIG   0.0000
  13 C13          5.9406     2.2865     6.9388 C.ar         1    LIG   0.0000
  14 C14          6.4731     3.5085     7.3340 C.ar         1    LIG   0.0000
  15 C15          7.6619     3.5488     8.0553 C.ar         1    LIG   0.0000
  16 C16          8.3032     2.3560     8.3725 C.ar         1    LIG   0.0000
  17 C17          9.6016     2.3932     9.1616 C.3          1    LIG   0.0000
  18 C18          9.4361     1.6479    10.4762 C.3          1    LIG   0.0000
  19 C19         10.7369     1.6821    11.2620 C.3          1    LIG   0.0000
  20 C20         11.8615     1.0560    10.4526 C.3          1    LIG   0.0000
  21 C21         12.0227     1.8080     9.1407 C.3          1    LIG   0.0000
  22 C22         10.7267     1.7754     8.3470 C.3          1    LIG   0.0000
  23 C23          7.7782     1.1284     7.9820 C.ar         1    LIG   0.0000
  24 C24          6.5888     1.0983     7.2617 C.ar         1    LIG   0.0000
  25 C25          4.2383     2.3507     2.2972 C.3          1    LIG   0.0000
  26 C26          3.2397     1.5627     1.4614 C.3          1    LIG   0.0000
  27 H           -2.2098     1.0315     0.1773 H            1    LIG   0.0000
  28 H           -1.3368     0.1200    -1.7877 H            1    LIG   0.0000
  29 H           -0.7697     1.6343    -1.5596 H            1    LIG   0.0000
  30 H            0.1775     0.3481    -1.2207 H            1    LIG   0.0000
  31 H           -1.8351    -1.2725     0.1031 H            1    LIG   0.0000
  32 H           -0.3208    -1.0444     0.6701 H            1    LIG   0.0000
  33 H           -1.6070    -0.7054     1.6174 H            1    LIG   0.0000
  34 H           -0.7735     1.5206     1.9526 H            1    LIG   0.0000
  35 H           -0.4345     2.4679     0.6664 H            1    LIG   0.0000
  36 H            1.0103     0.0630     1.3493 H            1    LIG   0.0000
  37 H            1.3493     1.0103     0.0630 H            1    LIG   0.0000
  38 H            1.8297     0.4724     3.3399 H            1    LIG   0.0000
  39 H            0.6736     1.6163     3.4868 H            1    LIG   0.0000
  40 H            2.1573     3.1489     4.3132 H            1    LIG   0.0000
  41 H            2.5092     1.7627     5.1015 H            1    LIG   0.0000
  42 H            4.0760     3.0382     6.4057 H            1    LIG   0.0000
  43 H            4.1489     1.4076     6.3530 H            1    LIG   0.0000
  44 H            6.0014     4.3586     7.0997 H            1    LIG   0.0000
  45 H            8.0506     4.4244     8.3421 H            1    LIG   0.0000
  46 H            9.8320     3.3462     9.3583 H            1    LIG   0.0000
  47 H            9.1875     0.6976    10.2888 H            1    LIG   0.0000
  48 H            8.7131     2.0818    11.0138 H            1    LIG   0.0000
  49 H           10.6206     1.1718    12.1142 H            1    LIG   0.0000
  50 H           10.9706     2.6316    11.4713 H            1    LIG   0.0000
  51 H           11.6427     0.0988    10.2632 H            1    LIG   0.0000
  52 H           12.7143     1.1064    10.9725 H            1    LIG   0.0000
  53 H           12.2667     2.7584     9.3338 H            1    LIG   0.0000
  54 H           12.7491     1.3800     8.6030 H            1    LIG   0.0000
  55 H           10.8444     2.2928     7.4994 H            1    LIG   0.0000
  56 H           10.4956     0.8271     8.1292 H            1    LIG   0.0000
  57 H            8.2500     0.2784     8.2162 H            1    LIG   0.0000
  58 H            6.1994     0.2227     6.9758 H            1    LIG   0.0000
  59 H            5.1508     1.9646     2.1616 H            1    LIG   0.0000
  60 H            4.2318     3.3044     1.9966 H            1    LIG   0.0000
  61 H            3.3628     1.8042     0.4988 H            1    LIG   0.0000
  62 H            3.4149     0.5860     1.5851 H            1    LIG   0.0000
@<TRIPOS>BOND
   1        1        2 1
   2        2        3 1
   3        2        4 1
   4        4        5 1
   5        5        6 1
   6        6        7 1
   7        7        8 1
   8        8        9 1
   9        9       10 am
  10       10       11 2
  11       10       12 1
  12       12       13 1
  13       13       14 ar
  14       14       15 ar
  15       15       16 ar
  16       16       17 1
  17       17       18 1
  18       18       19 1
  19       19       20 1
  20       20       21 1
  21       21       22 1
  22       22       17 1
  23       16       23 ar
  24       23       24 ar
  25       24       13 ar
  26        9       25 1
  27       25       26 1
  28       26        6 1
  29        2       27 1
  30        1       28 1
  31        1       29 1
  32        1       30 1
  33        3       31 1
  34        3       32 1
  35        3       33 1
  36        4       34 1
  37        4       35 1
  38        5       36 1
  39        5       37 1
  40        7       38 1
  41        7       39 1
  42        8       40 1
  43        8       41 1
  44       12       42 1
  45       12       43 1
  46       14       44 1
  47       15       45 1
  48       17       46 1
  49       18       47 1
  50       18       48 1
  51       19       49 1
  52       19       50 1
  53       20       51 1
  54       20       52 1
  55       21       53 1
  56       21       54 1
  57       22       55 1
  58       22       56 1
  59       23       57 1
  60       24       58 1
  61       25       59 1
  62       25       60 1
  63       26       61 1
  64       26       62 1

@<TRIPOS>MOLECULE

  62   64
SMALL
USER_CHARGES
@<TRIPOS>ATOM
   1 C1          -0.7594     0.6974    -1.2104 C.3          1    LIG   0.0000
   2 N2          -1.2729     0.6822     0.1670 N.4          1    LIG   1.0000
   3 C3          -1.2577    -0.6951     0.6804 C.3          1    LIG   0.0000
   4 C4          -0.4242     1.5309     1.0157 C.3          1    LIG   0.0000
   5 C5           1.0000     1.0000     1.0000 C.3          1    LIG   0.0000
   6 N6           1.8486     1.8486     1.8486 N.3          1    LIG   0.0000
   7 C7           1.6302     1.4481     3.2491 C.3          1    LIG   0.0000
   8 C8           2.5181     2.2216     4.2131 C.3          1    LIG   0.0000
   9 N9           3.9062     2.2993     3.7299 N.am         1    LIG   0.0000
  10 C10          4.9499     2.3158     4.6626 C.2          1    LIG   0.0000
  11 O11          6.0882     2.3788     4.2882 O.2          1    LIG   0.0000
  12 C12          4.6413     2.2540     6.1497 C.3          1    LIG   0.0000
  13 C13          4.8449     0.8329     6.6509 C.ar         1    LIG   0.0000
  14 C14          6.0921     0.4454     7.1275 C.ar         1    LIG   0.0000
  15 C15          6.2886    -0.8528     7.5872 C.ar         1    LIG   0.0000
  16 C16          5.2251    -1.7489     7.5629 C.ar         1    LIG   0.0000
  17 C17          5.4330    -3.1682     8.0651 C.3          1    LIG   0.0000
  18 C18          4.5124    -3.4464     9.2424 C.3          1    LIG   0.0000
  19 C19          4.7182    -4.8679     9.7405 C.3          1    LIG   0.0000
  20 C20          4.4447    -5.8648     8.6254 C.3          1    LIG   0.0000
  21 C21          5.3707    -5.5819     7.4528 C.3          1    LIG   0.0000
  22 C22          5.1683    -4.1629     6.9464 C.3          1    LIG   0.0000
  23 C23          3.9734    -1.3706     7.0884 C.ar         1    LIG   0.0000
  24 C24          3.7865    -0.0703     6.6315 C.ar         1    LIG   0.0000
  25 C25          4.2383     2.3507     2.2972 C.3          1    LIG   0.0000
  26 C26          3.2397     1.5627     1.4614 C.3          1    LIG   0.0000
  27 H           -2.2098     1.0315     0.1773 H            1    LIG   0.0000
  28 H           -1.3368     0.1200    -1.7877 H            1    LIG   0.0000
  29 H           -0.7697     1.6343    -1.5596 H            1    LIG   0.0000
  30 H            0.1775     0.3481    -1.2207 H            1    LIG   0.0000
  31 H           -1.8351    -1.2725     0.1031 H            1    LIG   0.0000
  32 H           -0.3208    -1.0444     0.6701 H            1    LIG   0.0000
  33 H           -1.6070    -0.7054     1.6174 H            1    LIG   0.0000
  34 H           -0.7735     1.5206     1.9526 H            1    LIG   0.0000
  35 H           -0.4345     2.4679     0.6664 H            1    LIG   0.0000
  36 H            1.0103     0.0630     1.3493 H            1    LIG   0.0000
  37 H            1.3493     1.0103     0.0630 H            1    LIG   0.0000
  38 H            1.8297     0.4724     3.3399 H            1    LIG   0.0000
  39 H            0.6736     1.6163     3.4868 H            1    LIG   0.0000
  40 H            2.1573     3.1489     4.3132 H            1    LIG   0.0000
  41 H            2.5092     1.7627     5.1015 H            1    LIG   0.0000
  42 H            5.2530     2.8723     6.6431 H            1    LIG   0.0000
  43 H            3.6926     2.5295     6.3050 H            1    LIG   0.0000
  44 H            6.8480     1.0999     7.1399 H            1    LIG   0.0000
  45 H            7.1833    -1.1382     7.9308 H            1    LIG   0.0000
  46 H            6.3811    -3.2676     8.3670 H            1    LIG   0.0000
  47 H            3.5619    -3.3313     8.9537 H            1    LIG   0.0000
  48 H            4.7165    -2.8041     9.9811 H            1    LIG   0.0000
  49 H            4.0932    -5.0444    10.5009 H            1    LIG   0.0000
  50 H            5.6621    -4.9740    10.0532 H            1    LIG   0.0000
  51 H            3.4940    -5.7789     8.3275 H            1    LIG   0.0000
  52 H            4.6063    -6.7928     8.9612 H            1    LIG   0.0000
  53 H            6.3195    -5.6940     7.7480 H            1    LIG   0.0000
  54 H            5.1730    -6.2265     6.7142 H            1    LIG   0.0000
  55 H            5.8000    -3.9877     6.1912 H            1    LIG   0.0000
  56 H            4.2272    -4.0572     6.6251 H            1    LIG   0.0000
  57 H            3.2176    -2.0252     7.0759 H            1    LIG   0.0000
  58 H            2.8915     0.2156     6.2889 H            1    LIG   0.0000
  59 H            5.1508     1.9646     2.1616 H            1    LIG   0.0000
  60 H            4.2318     3.3044     1.9966 H            1    LIG   0.0000
  61 H            3.3628     1.8042     0.4988 H            1    LIG   0.0000
  62 H            3.4149     0.5860     1.5851 H            1    LIG   0.0000
@<TRIPOS>BOND
   1        1        2 1
   2        2        3 1
   3        2        4 1
   4        4        5 1
   5        5        6 1
   6        6        7 1
   7        7        8 1
   8        8        9 1
   9        9       10 am
  10       10       11 2
  11       10       12 1
  12       12       13 1
  13       13       14 ar
  14       14       15 ar
  15       15       16 ar
  16       16       17 1
  17       17       18 1
  18       18       19 1
  19       19       20 1
  20       20       21 1
  21       21       22 1
  22       22       17 1
  23       16       23 ar
  24       23       24 ar
  25       24       13 ar
  26        9       25 1
  27       25       26 1
  28       26        6 1
  29        2       27 1
  30        1       28 1
  31        1       29 1
  32        1       30 1
  33        3       31 1
  34        3       32 1
  35        3       33 1
  36        4       34 1
  37        4       35 1
  38        5       36 1
  39        5       37 1
  40        7       38 1
  41        7       39 1
  42        8       40 1
  43        8       41 1
  44       12       42 1
  45       12       43 1
  46       14       44 1
  47       15       45 1
  48       17       46 1
  49       18       47 1
  50       18       48 1
  51       19       49 1
  52       19       50 1
  53       20       51 1
  54       20       52 1
  55       21       53 1
  56       21       54 1
  57       22       55 1
  58       22       56 1
  59       23       57 1
  60       24       58 1
  61       25       59 1
  62       25       60 1
  63       26       61 1
  64       26       62 1

@<TRIPOS>MOLECULE

  62   64
SMALL
USER_CHARGES
@<TRIPOS>ATOM
   1 C1          -0.7594     0.6974    -1.2104 C.3          1    LIG   0.0000
   2 N2          -1.2729     0.6822     0.1670 N.4          1    LIG   1.0000
   3 C3          -1.2577    -0.6951     0.6804 C.3          1    LIG   0.0000
   4 C4          -0.4242     1.5309     1.0157 C.3          1    LIG   0.0000
   5 C5           1.0000     1.0000     1.0000 C.3          1    LIG   0.0000
   6 N6           1.8486     1.8486     1.8486 N.3          1    LIG   0.0000
   7 C7           2.2035     3.0500     1.0739 C.3          1    LIG   0.0000
   8 C8           3.0291     4.0356     1.8881 C.3          1    LIG   0.0000
   9 N9           2.4707     4.2284     3.2362 N.am         1    LIG   0.0000
  10 C10          2.5976     5.4796     3.8511 C.2          1    LIG   0.0000
  11 O11          3.1551     6.3753     3.2794 O.2          1    LIG   0.0000
  12 C12          2.0293     5.7035     5.2430 C.3          1    LIG   0.0000
  13 C13          2.2993     7.1358     5.6764 C.ar         1    LIG   0.0000
  14 C14          1.3689     8.1274     5.3868 C.ar         1    LIG   0.0000
  15 C15          1.6074     9.4408     5.7781 C.ar         1    LIG   0.0000
  16 C16          2.7821     9.7428     6.4589 C.ar         1    LIG   0.0000
  17 C17          3.0478    11.1756     6.8904 C.3          1    LIG   0.0000
  18 C18          3.1728    11.2514     8.4035 C.3          1    LIG   0.0000
  19 C19          3.4432    12.6843     8.8331 C.3          1    LIG   0.0000
  20 C20          4.7177    13.2005     8.1841 C.3          1    LIG   0.0000
  21 C21          4.5843    13.1240     6.6712 C.3          1    LIG   0.0000
  22 C22          4.3173    11.6930     6.2331 C.3          1    LIG   0.0000
  23 C23          3.7189     8.7576     6.7536 C.ar         1    LIG   0.0000
  24 C24          3.4713     7.4471     6.3588 C.ar         1    LIG   0.0000
  25 C25          1.7733     3.1533     3.9596 C.3          1    LIG   0.0000
  26 C26          1.0257     2.2303     3.0078 C.3          1    LIG   0.0000
  27 H           -2.2098     1.0315     0.1773 H            1    LIG   0.0000
  28 H           -1.3368     0.1200    -1.7877 H            1    LIG   0.0000
  29 H           -0.7697     1.6343    -1.5596 H            1    LIG   0.0000
  30 H            0.1775     0.3481    -1.2207 H            1    LIG   0.0000
  31 H           -1.8351    -1.2725     0.1031 H            1    LIG   0.0000
  32 H           -0.3208    -1.0444     0.6701 H            1    LIG   0.0000
  33 H           -1.6070    -0.7054     1.6174 H            1    LIG   0.0000
  34 H           -0.7735     1.5206     1.9526 H            1    LIG   0.0000
  35 H           -0.4345     2.4679     0.6664 H            1    LIG   0.0000
  36 H            1.0103     0.0630     1.3493 H            1    LIG   0.0000
  37 H            1.3493     1.0103     0.0630 H            1    LIG   0.0000
  38 H            1.3623     3.5022     0.7774 H            1    LIG   0.0000
  39 H            2.7326     2.7717     0.2723 H            1    LIG   0.0000
  40 H            3.9624     3.6863     1.9706 H            1    LIG   0.0000
  41 H            3.0433     4.9160     1.4141 H            1    LIG   0.0000
  42 H            1.0430     5.5393     5.2307 H            1    LIG   0.0000
  43 H            2.4642     5.0730     5.8860 H            1    LIG   0.0000
  44 H            0.5281     7.8964     4.8971 H            1    LIG   0.0000
  45 H            0.9425    10.1590     5.5725 H            1    LIG   0.0000
  46 H            2.2796    11.7469     6.6015 H            1    LIG   0.0000
  47 H            3.9278    10.6681     8.7028 H            1    LIG   0.0000
  48 H            2.3213    10.9355     8.8221 H            1    LIG   0.0000
  49 H            3.5432    12.7170     9.8275 H            1    LIG   0.0000
  50 H            2.6752    13.2619     8.5562 H            1    LIG   0.0000
  51 H            5.4920    12.6406     8.4790 H            1    LIG   0.0000
  52 H            4.8698    14.1502     8.4575 H            1    LIG   0.0000
  53 H            3.8253    13.7052     6.3777 H            1    LIG   0.0000
  54 H            5.4323    13.4447     6.2492 H            1    LIG   0.0000
  55 H            4.2103    11.6655     5.2393 H            1    LIG   0.0000
  56 H            5.0881    11.1153     6.5016 H            1    LIG   0.0000
  57 H            4.5597     8.9887     7.2431 H            1    LIG   0.0000
  58 H            4.1355     6.7287     6.5654 H            1    LIG   0.0000
  59 H            1.1192     3.5618     4.5961 H            1    LIG   0.0000
  60 H            2.4452     2.6171     4.4705 H            1    LIG   0.0000
  61 H            0.7611     1.4024     3.5024 H            1    LIG   0.0000
  62 H            0.2055     2.6997     2.6808 H            1    LIG   0.0000
@<TRIPOS>BOND
   1        1        2 1
   2        2        3 1
   3        2        4 1
   4        4        5 1
   5        5        6 1
   6        6        7 1
   7        7        8 1
   8        8        9 1
   9        9       10 am
  10       10       11 2
  11       10       12 1
  12       12       13 1
  13       13       14 ar
  14       14       15 ar
  15       15       16 ar
  16       16       17 1
  17       17       18 1
  18       18       19 1
  19       19       20 1
  20       20       21 1
  21       21       22 1
  22       22       17 1
  23       16       23 ar
  24       23       24 ar
  25       24       13 ar
  26        9       25 1
  27       25       26 1
  28       26        6 1
  29        2       27 1
  30        1       28 1
  31        1       29 1
  32        1       30 1
  33        3       31 1
  34        3       32 1
  35        3       33 1
  36        4       34 1
  37        4       35 1
  38        5       36 1
  39        5       37 1
  40        7       38 1
  41        7       39 1
  42        8       40 1
  43        8       41 1
  44       12       42 1
  45       12       43 1
  46       14       44 1
  47       15       45 1
  48       17       46 1
  49       18       47 1
  50       18       48 1
  51       19       49 1
  52       19       50 1
  53       20       51 1
  54       20       52 1
  55       21       53 1
  56       21       54 1
  57       22       55 1
  58       22       56 1
  59       23       57 1
  60       24       58 1
  61       25       59 1
  62       25       60 1
  63       26       61 1
  64       26       62 1

@<TRIPOS>MOLECULE

  62   64
SMALL
USER_CHARGES
@<TRIPOS>ATOM
   1 C1          -0.7594     0.6974    -1.2104 C.3          1    LIG   0.0000
   2 N2          -1.2729     0.6822     0.1670 N.4          1    LIG   1.0000
   3 C3          -1.2577    -0.6951     0.6804 C.3          1    LIG   0.0000
   4 C4          -0.4242     1.5309     1.0157 C.3          1    LIG   0.0000
   5 C5           1.0000     1.0000     1.0000 C.3          1    LIG   0.0000
   6 N6           1.8486     1.8486     1.8486 N.3          1    LIG   0.0000
   7 C7           2.2035     3.0500     1.0739 C.3          1    LIG   0.0000
   8 C8           3.0291     4.0356     1.8881 C.3          1    LIG   0.0000
   9 N9           2.4707     4.2284     3.2362 N.am         1    LIG   0.0000
  10 C10          2.5976     5.4796     3.8511 C.2          1    LIG   0.0000
  11 O11          3.1551     6.3753     3.2794 O.2          1    LIG   0.0000
  12 C12          2.0293     5.7035     5.2430 C.3          1    LIG   0.0000
  13 C13          3.1484     5.6108     6.2683 C.ar         1    LIG   0.0000
  14 C14          3.8523     6.7566     6.6213 C.ar         1    LIG   0.0000
  15 C15          4.8785     6.6818     7.5576 C.ar         1    LIG   0.0000
  16 C16          5.1854     5.4521     8.1304 C.ar         1    LIG   0.0000
  17 C17          6.3045     5.3640     9.1550 C.3          1    LIG   0.0000
  18 C18          5.7579     4.8717    10.4853 C.3          1    LIG   0.0000
  19 C19          6.8792     4.7798    11.5076 C.3          1    LIG   0.0000
  20 C20          7.9675     3.8379    11.0171 C.3          1    LIG   0.0000
  21 C21          8.5109     4.3381     9.6878 C.3          1    LIG   0.0000
  22 C22          7.3958     4.4293     8.6586 C.3          1    LIG   0.0000
  23 C23          4.4866     4.3002     7.7841 C.ar         1    LIG   0.0000
  24 C24          3.4618     4.3851     6.8475 C.ar         1    LIG   0.0000
  25 C25          1.7733     3.1533     3.9596 C.3          1    LIG   0.0000
  26 C26          1.0257     2.2303     3.0078 C.3          1    LIG   0.0000
  27 H           -2.2098     1.0315     0.1773 H            1    LIG   0.0000
  28 H           -1.3368     0.1200    -1.7877 H            1    LIG   0.0000
  29 H           -0.7697     1.6343    -1.5596 H            1    LIG   0.0000
  30 H            0.1775     0.3481    -1.2207 H            1    LIG   0.0000
  31 H           -1.8351    -1.2725     0.1031 H            1    LIG   0.0000
  32 H           -0.3208    -1.0444     0.6701 H            1    LIG   0.0000
  33 H           -1.6070    -0.7054     1.6174 H            1    LIG   0.0000
  34 H           -0.7735     1.5206     1.9526 H            1    LIG   0.0000
  35 H           -0.4345     2.4679     0.6664 H            1    LIG   0.0000
  36 H            1.0103     0.0630     1.3493 H            1    LIG   0.0000
  37 H            1.3493     1.0103     0.0630 H            1    LIG   0.0000
  38 H            1.3623     3.5022     0.7774 H            1    LIG   0.0000
  39 H            2.7326     2.7717     0.2723 H            1    LIG   0.0000
  40 H            3.9624     3.6863     1.9706 H            1    LIG   0.0000
  41 H            3.0433     4.9160     1.4141 H            1    LIG   0.0000
  42 H            1.6088     6.6095     5.2895 H            1    LIG   0.0000
  43 H            1.3401     5.0056     5.4378 H            1    LIG   0.0000
  44 H            3.6210     7.6345     6.2021 H            1    LIG   0.0000
  45 H            5.3892     7.5020     7.8155 H            1    LIG   0.0000
  46 H            6.6951     6.2754     9.2846 H            1    LIG   0.0000
  47 H            5.3487     3.9678    10.3608 H            1    LIG   0.0000
  48 H            5.0620     5.5102    10.8139 H            1    LIG   0.0000
  49 H            6.5105     4.4359    12.3712 H            1    LIG   0.0000
  50 H            7.2702     5.6890    11.6505 H            1    LIG   0.0000
  51 H            7.5858     2.9214    10.8973 H            1    LIG   0.0000
  52 H            8.7077     3.8056    11.6886 H            1    LIG   0.0000
  53 H            8.9147     5.2437     9.8169 H            1    LIG   0.0000
  54 H            9.2113     3.7046     9.3591 H            1    LIG   0.0000
  55 H            7.7667     4.7805     7.7989 H            1    LIG   0.0000
  56 H            7.0092     3.5195     8.5078 H            1    LIG   0.0000
  57 H            4.7181     3.4222     8.2032 H            1    LIG   0.0000
  58 H            2.9503     3.5652     6.5903 H            1    LIG   0.0000
  59 H            1.1192     3.5618     4.5961 H            1    LIG   0.0000
  60 H            2.4452     2.6171     4.4705 H            1    LIG   0.0000
  61 H            0.7611     1.4024     3.5024 H            1    LIG   0.0000
  62 H            0.2055     2.6997     2.6808 H            1    LIG   0.0000
@<TRIPOS>BOND
   1        1        2 1
   2        2        3 1
   3        2        4 1
   4        4        5 1
   5        5        6 1
   6        6        7 1
   7        7        8 1
   8        8        9 1
   9        9       10 am
  10       10       11 2
  11       10       12 1
  12       12       13 1
  13       13       14 ar
  14       14       15 ar
  15       15       16 ar
  16       16       17 1
  17       17       18 1
  18       18       19 1
  19       19       20 1
  20       20       21 1
  21       21       22 1
  22       22       17 1
  23       16       23 ar
  24       23       24 ar
  25       24       13 ar
  26        9       25 1
  27       25       26 1
  28       26        6 1
  29        2       27 1
  30        1       28 1
  31        1       29 1
  32        1       30 1
  33        3       31 1
  34        3       32 1
  35        3       33 1
  36        4       34 1
  37        4       35 1
  38        5       36 1
  39        5       37 1
  40        7       38 1
  41        7       39 1
  42        8       40 1
  43        8       41 1
  44       12       42 1
  45       12       43 1
  46       14       44 1
  47       15       45 1
  48       17       46 1
  49       18       47 1
  50       18       48 1
  51       19       49 1
  52       19       50 1
  53       20       51 1
  54       20       52 1
  55       21       53 1
  56       21       54 1
  57       22       55 1
  58       22       56 1
  59       23       57 1
  60       24       58 1
  61       25       59 1
  62       25       60 1
  63       26       61 1
  64       26       62 1

@<TRIPOS>MOLECULE

  62   64
SMALL
USER_CHARGES
@<TRIPOS>ATOM
   1 C1          -0.7594     0.6974    -1.2104 C.3          1    LIG   0.0000
   2 N2          -1.2729     0.6822     0.1670 N.4          1    LIG   1.0000
   3 C3          -1.2577    -0.6951     0.6804 C.3          1    LIG   0.0000
   4 C4          -0.4242     1.5309     1.0157 C.3          1    LIG   0.0000
   5 C5           1.0000     1.0000     1.0000 C.3          1    LIG   0.0000
   6 N6           1.8486     1.8486     1.8486 N.3          1    LIG   0.0000
   7 C7           2.2035     3.0500     1.0739 C.3          1    LIG   0.0000
   8 C8           3.0291     4.0356     1.8881 C.3          1    LIG   0.0000
   9 N9           2.4707     4.2284     3.2362 N.am         1    LIG   0.0000
  10 C10          2.5976     5.4796     3.8511 C.2          1    LIG   0.0000
  11 O11          3.1551     6.3753     3.2794 O.2          1    LIG   0.0000
  12 C12          2.0293     5.7035     5.2430 C.3          1    LIG   0.0000
  13 C13          0.6909     6.4170     5.1352 C.ar         1    LIG   0.0000
  14 C14         -0.4776     5.6713     5.0279 C.ar         1    LIG   0.0000
  15 C15         -1.7069     6.3148     4.9277 C.ar         1    LIG   0.0000
  16 C16         -1.7471     7.7051     4.9373 C.ar         1    LIG   0.0000
  17 C17         -3.0871     8.4141     4.8296 C.3          1    LIG   0.0000
  18 C18         -3.3313     9.2614     6.0679 C.3          1    LIG   0.0000
  19 C19         -4.6697     9.9735     5.9565 C.3          1    LIG   0.0000
  20 C20         -4.7006    10.8525     4.7161 C.3          1    LIG   0.0000
  21 C21         -4.4582     9.9979     3.4819 C.3          1    LIG   0.0000
  22 C22         -3.1194     9.2850     3.5840 C.3          1    LIG   0.0000
  23 C23         -0.5836     8.4599     5.0447 C.ar         1    LIG   0.0000
  24 C24          0.6407     7.8075     5.1451 C.ar         1    LIG   0.0000
  25 C25          1.7733     3.1533     3.9596 C.3          1    LIG   0.0000
  26 C26          1.0257     2.2303     3.0078 C.3          1    LIG   0.0000
  27 H           -2.2098     1.0315     0.1773 H            1    LIG   0.0000
  28 H           -1.3368     0.1200    -1.7877 H            1    LIG   0.0000
  29 H           -0.7697     1.6343    -1.5596 H            1    LIG   0.0000
  30 H            0.1775     0.3481    -1.2207 H            1    LIG   0.0000
  31 H           -1.8351    -1.2725     0.1031 H            1    LIG   0.0000
  32 H           -0.3208    -1.0444     0.6701 H            1    LIG   0.0000
  33 H           -1.6070    -0.7054     1.6174 H            1    LIG   0.0000
  34 H           -0.7735     1.5206     1.9526 H            1    LIG   0.0000
  35 H           -0.4345     2.4679     0.6664 H            1    LIG   0.0000
  36 H            1.0103     0.0630     1.3493 H            1    LIG   0.0000
  37 H            1.3493     1.0103     0.0630 H            1    LIG   0.0000
  38 H            1.3623     3.5022     0.7774 H            1    LIG   0.0000
  39 H            2.7326     2.7717     0.2723 H            1    LIG   0.0000
  40 H            3.9624     3.6863     1.9706 H            1    LIG   0.0000
  41 H            3.0433     4.9160     1.4141 H            1    LIG   0.0000
  42 H            1.9013     4.8215     5.6966 H            1    LIG   0.0000
  43 H            2.6636     6.2635     5.7759 H            1    LIG   0.0000
  44 H           -0.4344     4.6722     5.0227 H            1    LIG   0.0000
  45 H           -2.5511     5.7845     4.8497 H            1    LIG   0.0000
  46 H           -3.8106     7.7272     4.7614 H            1    LIG   0.0000
  47 H           -2.6017     9.9398     6.1539 H            1    LIG   0.0000
  48 H           -3.3360     8.6726     6.8762 H            1    LIG   0.0000
  49 H           -4.8088    10.5424     6.7671 H            1    LIG   0.0000
  50 H           -5.4007     9.2938     5.8970 H            1    LIG   0.0000
  51 H           -3.9870    11.5497     4.7840 H            1    LIG   0.0000
  52 H           -5.5941    11.2958     4.6441 H            1    LIG   0.0000
  53 H           -5.1878     9.3186     3.4032 H            1    LIG   0.0000
  54 H           -4.4586    10.5830     2.6709 H            1    LIG   0.0000
  55 H           -2.9873     8.7114     2.7755 H            1    LIG   0.0000
  56 H           -2.3863     9.9631     3.6350 H            1    LIG   0.0000
  57 H           -0.6268     9.4590     5.0497 H            1    LIG   0.0000
  58 H            1.4848     8.3377     5.2243 H            1    LIG   0.0000
  59 H            1.1192     3.5618     4.5961 H            1    LIG   0.0000
  60 H            2.4452     2.6171     4.4705 H            1    LIG   0.0000
  61 H            0.7611     1.4024     3.5024 H            1    LIG   0.0000
  62 H            0.2055     2.6997     2.6808 H            1    LIG   0.0000
@<TRIPOS>BOND
   1        1        2 1
   2        2        3 1
   3        2        4 1
   4        4        5 1
   5        5        6 1
   6        6        7 1
   7        7        8 1
   8        8        9 1
   9        9       10 am
  10       10       11 2
  11       10       12 1
  12       12       13 1
  13       13       14 ar
  14       14       15 ar
  15       15       16 ar
  16       16       17 1
  17       17       18 1
  18       18       19 1
  19       19       20 1
  20       20       21 1
  21       21       22 1
  22       22       17 1
  23       16       23 ar
  24       23       24 ar
  25       24       13 ar
  26        9       25 1
  27       25       26 1
  28       26        6 1
  29        2       27 1
  30        1       28 1
  31        1       29 1
  32        1       30 1
  33        3       31 1
  34        3       32 1
  35        3       33 1
  36        4       34 1
  37        4       35 1
  38        5       36 1
  39        5       37 1
  40        7       38 1
  41        7       39 1
  42        8       40 1
  43        8       41 1
  44       12       42 1
  45       12       43 1
  46       14       44 1
  47       15       45 1
  48       17       46 1
  49       18       47 1
  50       18       48 1
  51       19       49 1
  52       19       50 1
  53       20       51 1
  54       20       52 1
  55       21       53 1
  56       21       54 1
  57       22       55 1
  58       22       56 1
  59       23       57 1
  60       24       58 1
  61       25       59 1
  62       25       60 1
  63       26       61 1
  64       26       62 1

@<TRIPOS>MOLECULE

  62   64
SMALL
USER_CHARGES
@<TRIPOS>ATOM
   1 C1          -0.7594     0.6974    -1.2104 C.3          1    LIG   0.0000
   2 N2          -1.2729     0.6822     0.1670 N.4          1    LIG   1.0000
   3 C3          -1.2577    -0.6951     0.6804 C.3          1    LIG   0.0000
   4 C4          -0.4242     1.5309     1.0157 C.3          1    LIG   0.0000
   5 C5           1.0000     1.0000     1.0000 C.3          1    LIG   0.0000
   6 N6           1.8486     1.8486     1.8486 N.3          1    LIG   0.0000
   7 C7           1.6864     1.5082     3.2700 C.3          1    LIG   0.0000
   8 C8           2.3888     2.5333     4.1464 C.3          1    LIG   0.0000
   9 N9           3.3582     3.3003     3.3510 N.am         1    LIG   0.0000
  10 C10          3.5629     4.6293     3.7174 C.2          1    LIG   0.0000
  11 O11          2.9601     5.0958     4.6442 O.2          1    LIG   0.0000
  12 C12          4.5498     5.4878     2.9432 C.3          1    LIG   0.0000
  13 C13          3.7938     6.3672     1.9597 C.ar         1    LIG   0.0000
  14 C14          3.3620     7.6275     2.3576 C.ar         1    LIG   0.0000
  15 C15          2.6687     8.4391     1.4655 C.ar         1    LIG   0.0000
  16 C16          2.4174     7.9728     0.1794 C.ar         1    LIG   0.0000
  17 C17          1.6617     8.8553    -0.8005 C.3          1    LIG   0.0000
  18 C18          2.5302     9.1548    -2.0116 C.3          1    LIG   0.0000
  19 C19          1.7712    10.0336    -2.9927 C.3          1    LIG   0.0000
  20 C20          0.4882     9.3480    -3.4353 C.3          1    LIG   0.0000
  21 C21         -0.3761     9.0539    -2.2191 C.3          1    LIG   0.0000
  22 C22          0.3748     8.1722    -1.2344 C.3          1    LIG   0.0000
  23 C23          2.8457     6.7136    -0.2282 C.ar         1    LIG   0.0000
  24 C24          3.5387     5.9097     0.6706 C.ar         1    LIG   0.0000
  25 C25          4.0924     2.7661     2.1940 C.3          1    LIG   0.0000
  26 C26          3.2685     1.6913     1.5033 C.3          1    LIG   0.0000
  27 H           -2.2098     1.0315     0.1773 H            1    LIG   0.0000
  28 H           -1.3368     0.1200    -1.7877 H            1    LIG   0.0000
  29 H           -0.7697     1.6343    -1.5596 H            1    LIG   0.0000
  30 H            0.1775     0.3481    -1.2207 H            1    LIG   0.0000
  31 H           -1.8351    -1.2725     0.1031 H            1    LIG   0.0000
  32 H           -0.3208    -1.0444     0.6701 H            1    LIG   0.0000
  33 H           -1.6070    -0.7054     1.6174 H            1    LIG   0.0000
  34 H           -0.7735     1.5206     1.9526 H            1    LIG   0.0000
  35 H           -0.4345     2.4679     0.6664 H            1    LIG   0.0000
  36 H            1.0103     0.0630     1.3493 H            1    LIG   0.0000
  37 H            1.3493     1.0103     0.0630 H            1    LIG   0.0000
  38 H            2.0809     0.6050     3.4392 H            1    LIG   0.0000
  39 H            0.7124     1.4942     3.4960 H            1    LIG   0.0000
  40 H            1.7104     3.1580     4.5329 H            1    LIG   0.0000
  41 H            2.8680     2.0621     4.8869 H            1    LIG   0.0000
  42 H            5.0618     6.0639     3.5802 H            1    LIG   0.0000
  43 H            5.1842     4.8980     2.4435 H            1    LIG   0.0000
  44 H            3.5499     7.9506     3.2851 H            1    LIG   0.0000
  45 H            2.3549     9.3464     1.7453 H            1    LIG   0.0000
  46 H            1.4323     9.7168    -0.3475 H            1    LIG   0.0000
  47 H            2.7796     8.2967    -2.4604 H            1    LIG   0.0000
  48 H            3.3592     9.6292    -1.7152 H            1    LIG   0.0000
  49 H            2.3455    10.2063    -3.7929 H            1    LIG   0.0000
  50 H            1.5454    10.9019    -2.5509 H            1    LIG   0.0000
  51 H            0.7116     8.4914    -3.9003 H            1    LIG   0.0000
  52 H           -0.0107     9.9470    -4.0616 H            1    LIG   0.0000
  53 H           -0.6187     9.9147    -1.7717 H            1    LIG   0.0000
  54 H           -1.2088     8.5846    -2.5127 H            1    LIG   0.0000
  55 H           -0.1995     8.0079    -0.4325 H            1    LIG   0.0000
  56 H            0.5941     7.3000    -1.6716 H            1    LIG   0.0000
  57 H            2.6576     6.3905    -1.1557 H            1    LIG   0.0000
  58 H            3.8536     5.0029     0.3905 H            1    LIG   0.0000
  59 H            4.9572     2.3715     2.5046 H            1    LIG   0.0000
  60 H            4.2770     3.5073     1.5485 H            1    LIG   0.0000
  61 H            3.3798     1.7738     0.5129 H            1    LIG   0.0000
  62 H            3.5839     0.7900     1.8003 H            1    LIG   0.0000
@<TRIPOS>BOND
   1        1        2 1
   2        2        3 1
   3        2        4 1
   4        4        5 1
   5        5        6 1
   6        6        7 1
   7        7        8 1
   8        8        9 1
   9        9       10 am
  10       10       11 2
  11       10       12 1
  12       12       13 1
  13       13       14 ar
  14       14       15 ar
  15       15       16 ar
  16       16       17 1
  17       17       18 1
  18       18       19 1
  19       19       20 1
  20       20       21 1
  21       21       22 1
  22       22       17 1
  23       16       23 ar
  24       23       24 ar
  25       24       13 ar
  26        9       25 1
  27       25       26 1
  28       26        6 1
  29        2       27 1
  30        1       28 1
  31        1       29 1
  32        1       30 1
  33        3       31 1
  34        3       32 1
  35        3       33 1
  36        4       34 1
  37        4       35 1
  38        5       36 1
  39        5       37 1
  40        7       38 1
  41        7       39 1
  42        8       40 1
  43        8       41 1
  44       12       42 1
  45       12       43 1
  46       14       44 1
  47       15       45 1
  48       17       46 1
  49       18       47 1
  50       18       48 1
  51       19       49 1
  52       19       50 1
  53       20       51 1
  54       20       52 1
  55       21       53 1
  56       21       54 1
  57       22       55 1
  58       22       56 1
  59       23       57 1
  60       24       58 1
  61       25       59 1
  62       25       60 1
  63       26       61 1
  64       26       62 1

@<TRIPOS>MOLECULE

  62   64
SMALL
USER_CHARGES
@<TRIPOS>ATOM
   1 C1          -0.7594     0.6974    -1.2104 C.3          1    LIG   0.0000
   2 N2          -1.2729     0.6822     0.1670 N.4          1    LIG   1.0000
   3 C3          -1.2577    -0.6951     0.6804 C.3          1    LIG   0.0000
   4 C4          -0.4242     1.5309     1.0157 C.3          1    LIG   0.0000
   5 C5           1.0000     1.0000     1.0000 C.3          1    LIG   0.0000
   6 N6           1.8486     1.8486     1.8486 N.3          1    LIG   0.0000
   7 C7           2.2463     3.0749     1.1406 C.3          1    LIG   0.0000
   8 C8           2.9103     4.0494     2.0992 C.3          1    LIG   0.0000
   9 N9           3.3698     3.3331     3.2994 N.am         1    LIG   0.0000
  10 C10          3.3817     4.0187     4.5103 C.2          1    LIG   0.0000
  11 O11          3.7503     3.4656     5.5094 O.2          1    LIG   0.0000
  12 C12          2.9278     5.4683     4.5674 C.3          1    LIG   0.0000
  13 C13          1.4992     5.5321     5.0844 C.ar         1    LIG   0.0000
  14 C14          1.2682     5.6458     6.4506 C.ar         1    LIG   0.0000
  15 C15         -0.0352     5.7037     6.9334 C.ar         1    LIG   0.0000
  16 C16         -1.0945     5.6473     6.0338 C.ar         1    LIG   0.0000
  17 C17         -2.5207     5.7116     6.5548 C.3          1    LIG   0.0000
  18 C18         -2.7925     4.5411     7.4859 C.3          1    LIG   0.0000
  19 C19         -4.2202     4.6036     8.0040 C.3          1    LIG   0.0000
  20 C20         -5.2016     4.5800     6.8431 C.3          1    LIG   0.0000
  21 C21         -4.9298     5.7527     5.9146 C.3          1    LIG   0.0000
  22 C22         -3.5026     5.6921     5.3946 C.3          1    LIG   0.0000
  23 C23         -0.8736     5.5339     4.6651 C.ar         1    LIG   0.0000
  24 C24          0.4331     5.4773     4.1919 C.ar         1    LIG   0.0000
  25 C25          3.8041     1.9292     3.3302 C.3          1    LIG   0.0000
  26 C26          3.0438     1.1170     2.2950 C.3          1    LIG   0.0000
  27 H           -2.2098     1.0315     0.1773 H            1    LIG   0.0000
  28 H           -1.3368     0.1200    -1.7877 H            1    LIG   0.0000
  29 H           -0.7697     1.6343    -1.5596 H            1    LIG   0.0000
  30 H            0.1775     0.3481    -1.2207 H            1    LIG   0.0000
  31 H           -1.8351    -1.2725     0.1031 H            1    LIG   0.0000
  32 H           -0.3208    -1.0444     0.6701 H            1    LIG   0.0000
  33 H           -1.6070    -0.7054     1.6174 H            1    LIG   0.0000
  34 H           -0.7735     1.5206     1.9526 H            1    LIG   0.0000
  35 H           -0.4345     2.4679     0.6664 H            1    LIG   0.0000
  36 H            1.0103     0.0630     1.3493 H            1    LIG   0.0000
  37 H            1.3493     1.0103     0.0630 H            1    LIG   0.0000
  38 H            1.4348     3.5042     0.7442 H            1    LIG   0.0000
  39 H            2.8892     2.8404     0.4114 H            1    LIG   0.0000
  40 H            3.6934     4.4774     1.6480 H            1    LIG   0.0000
  41 H            2.2525     4.7542     2.3648 H            1    LIG   0.0000
  42 H            3.5277     5.9814     5.1813 H            1    LIG   0.0000
  43 H            2.9688     5.8668     3.6512 H            1    LIG   0.0000
  44 H            2.0391     5.6859     7.0864 H            1    LIG   0.0000
  45 H           -0.2083     5.7850     7.9149 H            1    LIG   0.0000
  46 H           -2.6400     6.5638     7.0643 H            1    LIG   0.0000
  47 H           -2.1587     4.5793     8.2584 H            1    LIG   0.0000
  48 H           -2.6592     3.6845     6.9874 H            1    LIG   0.0000
  49 H           -4.3457     5.4476     8.5255 H            1    LIG   0.0000
  50 H           -4.3911     3.8168     8.5971 H            1    LIG   0.0000
  51 H           -6.1349     4.6455     7.1960 H            1    LIG   0.0000
  52 H           -5.0960     3.7242     6.3366 H            1    LIG   0.0000
  53 H           -5.5642     5.7164     5.1425 H            1    LIG   0.0000
  54 H           -5.0627     6.6080     6.4153 H            1    LIG   0.0000
  55 H           -3.3775     4.8501     4.8700 H            1    LIG   0.0000
  56 H           -3.3322     6.4811     4.8043 H            1    LIG   0.0000
  57 H           -1.6445     5.4936     4.0294 H            1    LIG   0.0000
  58 H            0.6064     5.3972     3.2103 H            1    LIG   0.0000
  59 H            3.6300     1.5502     4.2391 H            1    LIG   0.0000
  60 H            4.7830     1.8826     3.1315 H            1    LIG   0.0000
  61 H            3.6380     0.9453     1.5092 H            1    LIG   0.0000
  62 H            2.7653     0.2457     2.6990 H            1    LIG   0.0000
@<TRIPOS>BOND
   1        1        2 1
   2        2        3 1
   3        2        4 1
   4        4        5 1
   5        5        6 1
   6        6        7 1
   7        7        8 1
   8        8        9 1
   9        9       10 am
  10       10       11 2
  11       10       12 1
  12       12       13 1
  13       13       14 ar
  14       14       15 ar
  15       15       16 ar
  16       16       17 1
  17       17       18 1
  18       18       19 1
  19       19       20 1
  20       20       21 1
  21       21       22 1
  22       22       17 1
  23       16       23 ar
  24       23       24 ar
  25       24       13 ar
  26        9       25 1
  27       25       26 1
  28       26        6 1
  29        2       27 1
  30        1       28 1
  31        1       29 1
  32        1       30 1
  33        3       31 1
  34        3       32 1
  35        3       33 1
  36        4       34 1
  37        4       35 1
  38        5       36 1
  39        5       37 1
  40        7       38 1
  41        7       39 1
  42        8       40 1
  43        8       41 1
  44       12       42 1
  45       12       43 1
  46       14       44 1
  47       15       45 1
  48       17       46 1
  49       18       47 1
  50       18       48 1
  51       19       49 1
  52       19       50 1
  53       20       51 1
  54       20       52 1
  55       21       53 1
  56       21       54 1
  57       22       55 1
  58       22       56 1
  59       23       57 1
  60       24       58 1
  61       25       59 1
  62       25       60 1
  63       26       61 1
  64       26       62 1

@<TRIPOS>MOLECULE

  62   64
SMALL
USER_CHARGES
@<TRIPOS>ATOM
   1 C1          -0.7594     0.6974    -1.2104 C.3          1    LIG   0.0000
   2 N2          -1.2729     0.6822     0.1670 N.4          1    LIG   1.0000
   3 C3          -1.2577    -0.6951     0.6804 C.3          1    LIG   0.0000
   4 C4          -0.4242     1.5309     1.0157 C.3          1    LIG   0.0000
   5 C5           1.0000     1.0000     1.0000 C.3          1    LIG   0.0000
   6 N6           1.8488     1.8488     1.8488 N.3          1    LIG   0.0000
   7 C7           2.2694     3.0887     1.1761 C.3          1    LIG   0.0000
   8 C8           3.5262     2.8874     0.3444 C.3          1    LIG   0.0000
   9 N9           4.6081     2.6402     1.3076 N.am         1    LIG   0.0000
  10 C10          5.9412     2.9998     1.0357 C.2          1    LIG   0.0000
  11 O11          6.7986     2.7822     1.8466 O.2          1    LIG   0.0000
  12 C12          6.2950     3.6638    -0.2850 C.3          1    LIG   0.0000
  13 C13          6.4275     5.1644    -0.0784 C.ar         1    LIG   0.0000
  14 C14          7.6631     5.7041     0.2606 C.ar         1    LIG   0.0000
  15 C15          7.7941     7.0756     0.4528 C.ar         1    LIG   0.0000
  16 C16          6.6778     7.8913     0.3006 C.ar         1    LIG   0.0000
  17 C17          6.8147     9.3905     0.5078 C.3          1    LIG   0.0000
  18 C18          7.2691     9.6847     1.9283 C.3          1    LIG   0.0000
  19 C19          7.4025    11.1846     2.1364 C.3          1    LIG   0.0000
  20 C20          6.0741    11.8724     1.8652 C.3          1    LIG   0.0000
  21 C21          5.6227    11.5792     0.4435 C.3          1    LIG   0.0000
  22 C22          5.4881    10.0797     0.2329 C.3          1    LIG   0.0000
  23 C23          5.4374     7.3609    -0.0388 C.ar         1    LIG   0.0000
  24 C24          5.3165     5.9884    -0.2295 C.ar         1    LIG   0.0000
  25 C25          4.2123     1.9959     2.5665 C.3          1    LIG   0.0000
  26 C26          3.0397     1.0798     2.2477 C.3          1    LIG   0.0000
  27 H           -2.2098     1.0315     0.1773 H            1    LIG   0.0000
  28 H           -1.3368     0.1200    -1.7877 H            1    LIG   0.0000
  29 H           -0.7697     1.6343    -1.5596 H            1    LIG   0.0000
  30 H            0.1775     0.3481    -1.2207 H            1    LIG   0.0000
  31 H           -1.8351    -1.2725     0.1031 H            1    LIG   0.0000
  32 H           -0.3208    -1.0444     0.6701 H            1    LIG   0.0000
  33 H           -1.6070    -0.7054     1.6174 H            1    LIG   0.0000
  34 H           -0.7735     1.5206     1.9526 H            1    LIG   0.0000
  35 H           -0.4345     2.4679     0.6664 H            1    LIG   0.0000
  36 H            1.0103     0.0630     1.3493 H            1    LIG   0.0000
  37 H            1.3493     1.0103     0.0630 H            1    LIG   0.0000
  38 H            2.4492     3.7869     1.8690 H            1    LIG   0.0000
  39 H            1.5311     3.3968     0.5760 H            1    LIG   0.0000
  40 H            3.4177     2.1030    -0.2664 H            1    LIG   0.0000
  41 H            3.7211     3.7060    -0.1958 H            1    LIG   0.0000
  42 H            7.1619     3.2958    -0.6214 H            1    LIG   0.0000
  43 H            5.5738     3.4817    -0.9534 H            1    LIG   0.0000
  44 H            8.4577     5.1062     0.3664 H            1    LIG   0.0000
  45 H            8.6798     7.4702     0.6973 H            1    LIG   0.0000
  46 H            7.4998     9.7432    -0.1297 H            1    LIG   0.0000
  47 H            8.1546     9.2488     2.0889 H            1    LIG   0.0000
  48 H            6.5965     9.3203     2.5724 H            1    LIG   0.0000
  49 H            8.0946    11.5446     1.5109 H            1    LIG   0.0000
  50 H            7.6806    11.3637     3.0801 H            1    LIG   0.0000
  51 H            6.1815    12.8597     1.9824 H            1    LIG   0.0000
  52 H            5.3873    11.5332     2.5081 H            1    LIG   0.0000
  53 H            4.7379    12.0161     0.2812 H            1    LIG   0.0000
  54 H            6.2971    11.9435    -0.1988 H            1    LIG   0.0000
  55 H            4.7934     9.7197     0.8557 H            1    LIG   0.0000
  56 H            5.2129     9.9021    -0.7119 H            1    LIG   0.0000
  57 H            4.6428     7.9587    -0.1444 H            1    LIG   0.0000
  58 H            4.4310     5.5939    -0.4752 H            1    LIG   0.0000
  59 H            3.9365     2.6872     3.2342 H            1    LIG   0.0000
  60 H            4.9745     1.4629     2.9339 H            1    LIG   0.0000
  61 H            3.2982     0.4691     1.4992 H            1    LIG   0.0000
  62 H            2.8202     0.5381     3.0592 H            1    LIG   0.0000
@<TRIPOS>BOND
   1        1        2 1
   2        2        3 1
   3        2        4 1
   4        4        5 1
   5        5        6 1
   6        6        7 1
   7        7        8 1
   8        8        9 1
   9        9       10 am
  10       10       11 2
  11       10       12 1
  12       12       13 1
  13       13       14 ar
  14       14       15 ar
  15       15       16 ar
  16       16       17 1
  17       17       18 1
  18       18       19 1
  19       19       20 1
  20       20       21 1
  21       21       22 1
  22       22       17 1
  23       16       23 ar
  24       23       24 ar
  25       24       13 ar
  26        9       25 1
  27       25       26 1
  28       26        6 1
  29        2       27 1
  30        1       28 1
  31        1       29 1
  32        1       30 1
  33        3       31 1
  34        3       32 1
  35        3       33 1
  36        4       34 1
  37        4       35 1
  38        5       36 1
  39        5       37 1
  40        7       38 1
  41        7       39 1
  42        8       40 1
  43        8       41 1
  44       12       42 1
  45       12       43 1
  46       14       44 1
  47       15       45 1
  48       17       46 1
  49       18       47 1
  50       18       48 1
  51       19       49 1
  52       19       50 1
  53       20       51 1
  54       20       52 1
  55       21       53 1
  56       21       54 1
  57       22       55 1
  58       22       56 1
  59       23       57 1
  60       24       58 1
  61       25       59 1
  62       25       60 1
  63       26       61 1
  64       26       62 1

@<TRIPOS>MOLECULE

  62   64
SMALL
USER_CHARGES
@<TRIPOS>ATOM
   1 C1          -0.7594     0.6974    -1.2104 C.3          1    LIG   0.0000
   2 N2          -1.2729     0.6822     0.1670 N.4          1    LIG   1.0000
   3 C3          -1.2577    -0.6951     0.6804 C.3          1    LIG   0.0000
   4 C4          -0.4242     1.5309     1.0157 C.3          1    LIG   0.0000
   5 C5           1.0000     1.0000     1.0000 C.3          1    LIG   0.0000
   6 N6           1.8488     1.8488     1.8488 N.3          1    LIG   0.0000
   7 C7           2.2694     3.0887     1.1761 C.3          1    LIG   0.0000
   8 C8           3.5262     2.8874     0.3444 C.3          1    LIG   0.0000
   9 N9           4.6081     2.6402     1.3076 N.am         1    LIG   0.0000
  10 C10          5.9412     2.9998     1.0357 C.2          1    LIG   0.0000
  11 O11          6.7986     2.7822     1.8466 O.2          1    LIG   0.0000
  12 C12          6.2950     3.6638    -0.2850 C.3          1    LIG   0.0000
  13 C13          6.8763     2.6273    -1.2337 C.ar         1    LIG   0.0000
  14 C14          6.0295     1.9198    -2.0795 C.ar         1    LIG   0.0000
  15 C15          6.5516     0.9687    -2.9502 C.ar         1    LIG   0.0000
  16 C16          7.9235     0.7399    -2.9609 C.ar         1    LIG   0.0000
  17 C17          8.5002    -0.2968    -3.9108 C.3          1    LIG   0.0000
  18 C18          9.4773     0.3592    -4.8730 C.3          1    LIG   0.0000
  19 C19         10.0513    -0.6772    -5.8254 C.3          1    LIG   0.0000
  20 C20          8.9328    -1.3515    -6.6036 C.3          1    LIG   0.0000
  21 C21          7.9581    -2.0091    -5.6398 C.3          1    LIG   0.0000
  22 C22          7.3823    -0.9744    -4.6865 C.3          1    LIG   0.0000
  23 C23          8.7789     1.4429    -2.1187 C.ar         1    LIG   0.0000
  24 C24          8.2476     2.3922    -1.2521 C.ar         1    LIG   0.0000
  25 C25          4.2123     1.9959     2.5665 C.3          1    LIG   0.0000
  26 C26          3.0397     1.0798     2.2477 C.3          1    LIG   0.0000
  27 H           -2.2098     1.0315     0.1773 H            1    LIG   0.0000
  28 H           -1.3368     0.1200    -1.7877 H            1    LIG   0.0000
  29 H           -0.7697     1.6343    -1.5596 H            1    LIG   0.0000
  30 H            0.1775     0.3481    -1.2207 H            1    LIG   0.0000
  31 H           -1.8351    -1.2725     0.1031 H            1    LIG   0.0000
  32 H           -0.3208    -1.0444     0.6701 H            1    LIG   0.0000
  33 H           -1.6070    -0.7054     1.6174 H            1    LIG   0.0000
  34 H           -0.7735     1.5206     1.9526 H            1    LIG   0.0000
  35 H           -0.4345     2.4679     0.6664 H            1    LIG   0.0000
  36 H            1.0103     0.0630     1.3493 H            1    LIG   0.0000
  37 H            1.3493     1.0103     0.0630 H            1    LIG   0.0000
  38 H            2.4492     3.7869     1.8690 H            1    LIG   0.0000
  39 H            1.5311     3.3968     0.5760 H            1    LIG   0.0000
  40 H            3.4177     2.1030    -0.2664 H            1    LIG   0.0000
  41 H            3.7211     3.7060    -0.1958 H            1    LIG   0.0000
  42 H            5.4713     4.0611    -0.6895 H            1    LIG   0.0000
  43 H            6.9692     4.3849    -0.1255 H            1    LIG   0.0000
  44 H            5.0451     2.0946    -2.0620 H            1    LIG   0.0000
  45 H            5.9481     0.4560    -3.5608 H            1    LIG   0.0000
  46 H            8.9876    -0.9878    -3.3771 H            1    LIG   0.0000
  47 H           10.2217     0.7784    -4.3532 H            1    LIG   0.0000
  48 H            9.0004     1.0633    -5.3992 H            1    LIG   0.0000
  49 H           10.5512    -1.3666    -5.3012 H            1    LIG   0.0000
  50 H           10.6748    -0.2282    -6.4654 H            1    LIG   0.0000
  51 H            9.3215    -2.0466    -7.2084 H            1    LIG   0.0000
  52 H            8.4491    -0.6674    -7.1496 H            1    LIG   0.0000
  53 H            7.2141    -2.4301    -6.1587 H            1    LIG   0.0000
  54 H            8.4373    -2.7119    -5.1141 H            1    LIG   0.0000
  55 H            6.8792    -0.2867    -5.2098 H            1    LIG   0.0000
  56 H            6.7614    -1.4254    -4.0453 H            1    LIG   0.0000
  57 H            9.7633     1.2679    -2.1362 H            1    LIG   0.0000
  58 H            8.8512     2.9059    -0.6423 H            1    LIG   0.0000
  59 H            3.9365     2.6872     3.2342 H            1    LIG   0.0000
  60 H            4.9745     1.4629     2.9339 H            1    LIG   0.0000
  61 H            3.2982     0.4691     1.4992 H            1    LIG   0.0000
  62 H            2.8202     0.5381     3.0592 H            1    LIG   0.0000
@<TRIPOS>BOND
   1        1        2 1
   2        2        3 1
   3        2        4 1
   4        4        5 1
   5        5        6 1
   6        6        7 1
   7        7        8 1
   8        8        9 1
   9        9       10 am
  10       10       11 2
  11       10       12 1
  12       12       13 1
  13       13       14 ar
  14       14       15 ar
  15       15       16 ar
  16       16       17 1
  17       17       18 1
  18       18       19 1
  19       19       20 1
  20       20       21 1
  21       21       22 1
  22       22       17 1
  23       16       23 ar
  24       23       24 ar
  25       24       13 ar
  26        9       25 1
  27       25       26 1
  28       26        6 1
  29        2       27 1
  30        1       28 1
  31        1       29 1
  32        1       30 1
  33        3       31 1
  34        3       32 1
  35        3       33 1
  36        4       34 1
  37        4       35 1
  38        5       36 1
  39        5       37 1
  40        7       38 1
  41        7       39 1
  42        8       40 1
  43        8       41 1
  44       12       42 1
  45       12       43 1
  46       14       44 1
  47       15       45 1
  48       17       46 1
  49       18       47 1
  50       18       48 1
  51       19       49 1
  52       19       50 1
  53       20       51 1
  54       20       52 1
  55       21       53 1
  56       21       54 1
  57       22       55 1
  58       22       56 1
  59       23       57 1
  60       24       58 1
  61       25       59 1
  62       25       60 1
  63       26       61 1
  64       26       62 1

