@<TRIPOS>MOLECULE
*****
 62 64 0 0 0
SMALL
USER_CHARGES

@<TRIPOS>ATOM
      1 C1         -0.7594    0.6974   -1.2104 C.3     1  LIG1        0.0000
      2 N2         -1.2729    0.6822    0.1670 N.4     1  LIG1        1.0000
      3 C3         -1.2577   -0.6951    0.6804 C.3     1  LIG1        0.0000
      4 C4         -0.4242    1.5309    1.0157 C.3     1  LIG1        0.0000
      5 C5          1.0000    1.0000    1.0000 C.3     1  LIG1        0.0000
      6 N6          1.8489    1.8489    1.8489 N.3     1  LIG1        0.0000
      7 C7          1.6193    1.4365    3.2432 C.3     1  LIG1        0.0000
      8 C8          2.4101    2.2821    4.2316 C.3     1  LIG1        0.0000
      9 N9          2.3118    3.7160    3.9155 N.am    1  LIG1        0.0000
     10 C10         2.3363    4.6361    4.9696 C.2     1  LIG1        0.0000
     11 O11         2.4358    4.2494    6.1013 O.2     1  LIG1        0.0000
     12 C12         2.2370    6.1251    4.6812 C.3     1  LIG1        0.0000
     13 C13         3.6247    6.7447    4.7308 C.3     1  LIG1        0.0000
     14 C14         4.3911    6.8050    3.5723 C.3     1  LIG1        0.0000
     15 C15         5.6624    7.3689    3.6077 C.3     1  LIG1        0.0000
     16 C16         6.1494    7.8679    4.8112 C.3     1  LIG1        0.0000
     17 C17         7.5369    8.4865    4.8561 C.3     1  LIG1        0.0000
     18 C18         8.5817    7.4569    4.4571 C.3     1  LIG1        0.0000
     19 C19         9.9683    8.0785    4.4981 C.3     1  LIG1        0.0000
     20 C20        10.0403    9.2752    3.5627 C.3     1  LIG1        0.0000
     21 C21         8.9945   10.3015    3.9695 C.3     1  LIG1        0.0000
     22 C22         7.6041    9.6883    3.9275 C.3     1  LIG1        0.0000
     23 C23         5.3901    7.8126    5.9755 C.3     1  LIG1        0.0000
     24 C24         4.1200    7.2474    5.9300 C.3     1  LIG1        0.0000
     25 C25         2.1734    4.2146    2.5375 C.3     1  LIG1        0.0000
     26 C26         1.4018    3.2390    1.6608 C.3     1  LIG1        0.0000
     27 H          -2.2098    1.0315    0.1773 H       1  LIG1        0.0000
     28 H          -1.3368    0.1200   -1.7877 H       1  LIG1        0.0000
     29 H          -0.7697    1.6343   -1.5596 H       1  LIG1        0.0000
     30 H           0.1775    0.3481   -1.2207 H       1  LIG1        0.0000
     31 H          -1.8351   -1.2725    0.1031 H       1  LIG1        0.0000
     32 H          -0.3208   -1.0444    0.6701 H       1  LIG1        0.0000
     33 H          -1.6070   -0.7054    1.6174 H       1  LIG1        0.0000
     34 H          -0.7735    1.5206    1.9526 H       1  LIG1        0.0000
     35 H          -0.4345    2.4679    0.6664 H       1  LIG1        0.0000
     36 H           1.0103    0.0630    1.3493 H       1  LIG1        0.0000
     37 H           1.3493    1.0103    0.0630 H       1  LIG1        0.0000
     38 H           1.8941    0.4805    3.3455 H       1  LIG1        0.0000
     39 H           0.6450    1.5272    3.4494 H       1  LIG1        0.0000
     40 H           2.0509    2.1270    5.1519 H       1  LIG1        0.0000
     41 H           3.3710    2.0073    4.1981 H       1  LIG1        0.0000
     42 H           1.8426    6.2631    3.7727 H       1  LIG1        0.0000
     43 H           1.6534    6.5594    5.3674 H       1  LIG1        0.0000
     44 H           4.0285    6.4429    2.7136 H       1  LIG1        0.0000
     45 H           6.2190    7.4149    2.7783 H       1  LIG1        0.0000
     46 H           7.7242    8.7903    5.7903 H       1  LIG1        0.0000
     47 H           8.3910    7.1341    3.5301 H       1  LIG1        0.0000
     48 H           8.5459    6.6857    5.0927 H       1  LIG1        0.0000
     49 H          10.6433    7.3974    4.2144 H       1  LIG1        0.0000
     50 H          10.1681    8.3773    5.4313 H       1  LIG1        0.0000
     51 H           9.8661    8.9757    2.6247 H       1  LIG1        0.0000
     52 H          10.9501    9.6868    3.6177 H       1  LIG1        0.0000
     53 H           9.1871   10.6175    4.8984 H       1  LIG1        0.0000
     54 H           9.0316   11.0769    3.3392 H       1  LIG1        0.0000
     55 H           6.9328   10.3698    4.2190 H       1  LIG1        0.0000
     56 H           7.3989    9.3967    2.9933 H       1  LIG1        0.0000
     57 H           5.7528    8.1745    6.8342 H       1  LIG1        0.0000
     58 H           3.5628    7.2025    6.7591 H       1  LIG1        0.0000
     59 H           3.0848    4.3489    2.1484 H       1  LIG1        0.0000
     60 H           1.6869    5.0881    2.5562 H       1  LIG1        0.0000
     61 H           0.4304    3.2987    1.8904 H       1  LIG1        0.0000
     62 H           1.5341    3.4930    0.7027 H       1  LIG1        0.0000
@<TRIPOS>UNITY_ATOM_ATTR
2 1
charge 1
@<TRIPOS>BOND
     1     1     2    1
     2     2     3    1
     3     2     4    1
     4     4     5    1
     5     5     6    1
     6     6     7    1
     7     7     8    1
     8     8     9    1
     9     9    10   am
    10    10    11    2
    11    10    12    1
    12    12    13    1
    13    13    14   ar
    14    14    15   ar
    15    15    16   ar
    16    16    17    1
    17    17    18    1
    18    18    19    1
    19    19    20    1
    20    20    21    1
    21    21    22    1
    22    22    17    1
    23    16    23   ar
    24    23    24   ar
    25    24    13   ar
    26     9    25    1
    27    25    26    1
    28    26     6    1
    29     2    27    1
    30     1    28    1
    31     1    29    1
    32     1    30    1
    33     3    31    1
    34     3    32    1
    35     3    33    1
    36     4    34    1
    37     4    35    1
    38     5    36    1
    39     5    37    1
    40     7    38    1
    41     7    39    1
    42     8    40    1
    43     8    41    1
    44    12    42    1
    45    12    43    1
    46    14    44    1
    47    15    45    1
    48    17    46    1
    49    18    47    1
    50    18    48    1
    51    19    49    1
    52    19    50    1
    53    20    51    1
    54    20    52    1
    55    21    53    1
    56    21    54    1
    57    22    55    1
    58    22    56    1
    59    23    57    1
    60    24    58    1
    61    25    59    1
    62    25    60    1
    63    26    61    1
    64    26    62    1
