@<TRIPOS>MOLECULE
*****
 62 64 0 0 0
SMALL
USER_CHARGES

@<TRIPOS>ATOM
      1 C1         -0.7594    0.6974   -1.2104 C.3     1  LIG1        0.0000
      2 N2         -1.2729    0.6822    0.1670 N.4     1  LIG1        1.0000
      3 C3         -1.2577   -0.6951    0.6804 C.3     1  LIG1        0.0000
      4 C4         -0.4242    1.5309    1.0157 C.3     1  LIG1        0.0000
      5 C5          1.0000    1.0000    1.0000 C.3     1  LIG1        0.0000
      6 N6          1.8486    1.8486    1.8486 N.3     1  LIG1        0.0000
      7 C7          1.6302    1.4481    3.2491 C.3     1  LIG1        0.0000
      8 C8          2.5181    2.2216    4.2131 C.3     1  LIG1        0.0000
      9 N9          3.9062    2.2993    3.7299 N.am    1  LIG1        0.0000
     10 C10         4.9499    2.3158    4.6626 C.2     1  LIG1        0.0000
     11 O11         6.0882    2.3788    4.2882 O.2     1  LIG1        0.0000
     12 C12         4.6413    2.2540    6.1497 C.3     1  LIG1        0.0000
     13 C13         4.8449    0.8329    6.6509 C.3     1  LIG1        0.0000
     14 C14         6.0921    0.4454    7.1275 C.3     1  LIG1        0.0000
     15 C15         6.2886   -0.8528    7.5872 C.3     1  LIG1        0.0000
     16 C16         5.2251   -1.7489    7.5629 C.3     1  LIG1        0.0000
     17 C17         5.4330   -3.1682    8.0651 C.3     1  LIG1        0.0000
     18 C18         4.5124   -3.4464    9.2424 C.3     1  LIG1        0.0000
     19 C19         4.7182   -4.8679    9.7405 C.3     1  LIG1        0.0000
     20 C20         4.4447   -5.8648    8.6254 C.3     1  LIG1        0.0000
     21 C21         5.3707   -5.5819    7.4528 C.3     1  LIG1        0.0000
     22 C22         5.1683   -4.1629    6.9464 C.3     1  LIG1        0.0000
     23 C23         3.9734   -1.3706    7.0884 C.3     1  LIG1        0.0000
     24 C24         3.7865   -0.0703    6.6315 C.3     1  LIG1        0.0000
     25 C25         4.2383    2.3507    2.2972 C.3     1  LIG1        0.0000
     26 C26         3.2397    1.5627    1.4614 C.3     1  LIG1        0.0000
     27 H          -2.2098    1.0315    0.1773 H       1  LIG1        0.0000
     28 H          -1.3368    0.1200   -1.7877 H       1  LIG1        0.0000
     29 H          -0.7697    1.6343   -1.5596 H       1  LIG1        0.0000
     30 H           0.1775    0.3481   -1.2207 H       1  LIG1        0.0000
     31 H          -1.8351   -1.2725    0.1031 H       1  LIG1        0.0000
     32 H          -0.3208   -1.0444    0.6701 H       1  LIG1        0.0000
     33 H          -1.6070   -0.7054    1.6174 H       1  LIG1        0.0000
     34 H          -0.7735    1.5206    1.9526 H       1  LIG1        0.0000
     35 H          -0.4345    2.4679    0.6664 H       1  LIG1        0.0000
     36 H           1.0103    0.0630    1.3493 H       1  LIG1        0.0000
     37 H           1.3493    1.0103    0.0630 H       1  LIG1        0.0000
     38 H           1.8297    0.4724    3.3399 H       1  LIG1        0.0000
     39 H           0.6736    1.6163    3.4868 H       1  LIG1        0.0000
     40 H           2.1573    3.1489    4.3132 H       1  LIG1        0.0000
     41 H           2.5092    1.7627    5.1015 H       1  LIG1        0.0000
     42 H           5.2530    2.8723    6.6431 H       1  LIG1        0.0000
     43 H           3.6926    2.5295    6.3050 H       1  LIG1        0.0000
     44 H           6.8480    1.0999    7.1399 H       1  LIG1        0.0000
     45 H           7.1833   -1.1382    7.9308 H       1  LIG1        0.0000
     46 H           6.3811   -3.2676    8.3670 H       1  LIG1        0.0000
     47 H           3.5619   -3.3313    8.9537 H       1  LIG1        0.0000
     48 H           4.7165   -2.8041    9.9811 H       1  LIG1        0.0000
     49 H           4.0932   -5.0444   10.5009 H       1  LIG1        0.0000
     50 H           5.6621   -4.9740   10.0532 H       1  LIG1        0.0000
     51 H           3.4940   -5.7789    8.3275 H       1  LIG1        0.0000
     52 H           4.6063   -6.7928    8.9612 H       1  LIG1        0.0000
     53 H           6.3195   -5.6940    7.7480 H       1  LIG1        0.0000
     54 H           5.1730   -6.2265    6.7142 H       1  LIG1        0.0000
     55 H           5.8000   -3.9877    6.1912 H       1  LIG1        0.0000
     56 H           4.2272   -4.0572    6.6251 H       1  LIG1        0.0000
     57 H           3.2176   -2.0252    7.0759 H       1  LIG1        0.0000
     58 H           2.8915    0.2156    6.2889 H       1  LIG1        0.0000
     59 H           5.1508    1.9646    2.1616 H       1  LIG1        0.0000
     60 H           4.2318    3.3044    1.9966 H       1  LIG1        0.0000
     61 H           3.3628    1.8042    0.4988 H       1  LIG1        0.0000
     62 H           3.4149    0.5860    1.5851 H       1  LIG1        0.0000
@<TRIPOS>UNITY_ATOM_ATTR
2 1
charge 1
@<TRIPOS>BOND
     1     1     2    1
     2     2     3    1
     3     2     4    1
     4     4     5    1
     5     5     6    1
     6     6     7    1
     7     7     8    1
     8     8     9    1
     9     9    10   am
    10    10    11    2
    11    10    12    1
    12    12    13    1
    13    13    14   ar
    14    14    15   ar
    15    15    16   ar
    16    16    17    1
    17    17    18    1
    18    18    19    1
    19    19    20    1
    20    20    21    1
    21    21    22    1
    22    22    17    1
    23    16    23   ar
    24    23    24   ar
    25    24    13   ar
    26     9    25    1
    27    25    26    1
    28    26     6    1
    29     2    27    1
    30     1    28    1
    31     1    29    1
    32     1    30    1
    33     3    31    1
    34     3    32    1
    35     3    33    1
    36     4    34    1
    37     4    35    1
    38     5    36    1
    39     5    37    1
    40     7    38    1
    41     7    39    1
    42     8    40    1
    43     8    41    1
    44    12    42    1
    45    12    43    1
    46    14    44    1
    47    15    45    1
    48    17    46    1
    49    18    47    1
    50    18    48    1
    51    19    49    1
    52    19    50    1
    53    20    51    1
    54    20    52    1
    55    21    53    1
    56    21    54    1
    57    22    55    1
    58    22    56    1
    59    23    57    1
    60    24    58    1
    61    25    59    1
    62    25    60    1
    63    26    61    1
    64    26    62    1
