@<TRIPOS>MOLECULE
*****
 62 64 0 0 0
SMALL
USER_CHARGES

@<TRIPOS>ATOM
      1 C1         -0.7594    0.6974   -1.2104 C.3     1  LIG1        0.0000
      2 N2         -1.2729    0.6822    0.1670 N.4     1  LIG1        1.0000
      3 C3         -1.2577   -0.6951    0.6804 C.3     1  LIG1        0.0000
      4 C4         -0.4242    1.5309    1.0157 C.3     1  LIG1        0.0000
      5 C5          1.0000    1.0000    1.0000 C.3     1  LIG1        0.0000
      6 N6          1.8489    1.8489    1.8489 N.3     1  LIG1        0.0000
      7 C7          1.6193    1.4365    3.2432 C.3     1  LIG1        0.0000
      8 C8          2.4101    2.2821    4.2316 C.3     1  LIG1        0.0000
      9 N9          2.3118    3.7160    3.9155 N.am    1  LIG1        0.0000
     10 C10         2.3363    4.6361    4.9696 C.2     1  LIG1        0.0000
     11 O11         2.4358    4.2494    6.1013 O.2     1  LIG1        0.0000
     12 C12         2.2370    6.1251    4.6812 C.3     1  LIG1        0.0000
     13 C13         2.2870    6.8992    5.9891 C.3     1  LIG1        0.0000
     14 C14         3.5141    7.3126    6.4953 C.3     1  LIG1        0.0000
     15 C15         3.5703    8.0204    7.6917 C.3     1  LIG1        0.0000
     16 C16         2.3882    8.3057    8.3668 C.3     1  LIG1        0.0000
     17 C17         2.4428    9.0798    9.6735 C.3     1  LIG1        0.0000
     18 C18         3.2557    8.3114   10.7030 C.3     1  LIG1        0.0000
     19 C19         3.3132    9.0892   12.0078 C.3     1  LIG1        0.0000
     20 C20         3.9319   10.4595   11.7810 C.3     1  LIG1        0.0000
     21 C21         3.1122   11.2229   10.7524 C.3     1  LIG1        0.0000
     22 C22         3.0529   10.4530    9.4429 C.3     1  LIG1        0.0000
     23 C23         1.1557    7.8967    7.8682 C.3     1  LIG1        0.0000
     24 C24         1.1096    7.1901    6.6710 C.3     1  LIG1        0.0000
     25 C25         2.1734    4.2146    2.5375 C.3     1  LIG1        0.0000
     26 C26         1.4018    3.2390    1.6608 C.3     1  LIG1        0.0000
     27 H          -2.2098    1.0315    0.1773 H       1  LIG1        0.0000
     28 H          -1.3368    0.1200   -1.7877 H       1  LIG1        0.0000
     29 H          -0.7697    1.6343   -1.5596 H       1  LIG1        0.0000
     30 H           0.1775    0.3481   -1.2207 H       1  LIG1        0.0000
     31 H          -1.8351   -1.2725    0.1031 H       1  LIG1        0.0000
     32 H          -0.3208   -1.0444    0.6701 H       1  LIG1        0.0000
     33 H          -1.6070   -0.7054    1.6174 H       1  LIG1        0.0000
     34 H          -0.7735    1.5206    1.9526 H       1  LIG1        0.0000
     35 H          -0.4345    2.4679    0.6664 H       1  LIG1        0.0000
     36 H           1.0103    0.0630    1.3493 H       1  LIG1        0.0000
     37 H           1.3493    1.0103    0.0630 H       1  LIG1        0.0000
     38 H           1.8941    0.4805    3.3455 H       1  LIG1        0.0000
     39 H           0.6450    1.5272    3.4494 H       1  LIG1        0.0000
     40 H           2.0509    2.1270    5.1519 H       1  LIG1        0.0000
     41 H           3.3710    2.0073    4.1981 H       1  LIG1        0.0000
     42 H           3.0012    6.4037    4.0996 H       1  LIG1        0.0000
     43 H           1.3745    6.3172    4.2130 H       1  LIG1        0.0000
     44 H           4.3563    7.1012    5.9994 H       1  LIG1        0.0000
     45 H           4.4496    8.3202    8.0616 H       1  LIG1        0.0000
     46 H           1.5115    9.1949   10.0190 H       1  LIG1        0.0000
     47 H           4.1842    8.1758   10.3573 H       1  LIG1        0.0000
     48 H           2.8276    7.4225   10.8661 H       1  LIG1        0.0000
     49 H           3.8669    8.5830   12.6690 H       1  LIG1        0.0000
     50 H           2.3862    9.2013   12.3658 H       1  LIG1        0.0000
     51 H           4.8682   10.3512   11.4470 H       1  LIG1        0.0000
     52 H           3.9419   10.9673   12.6424 H       1  LIG1        0.0000
     53 H           2.1838   11.3517   11.1009 H       1  LIG1        0.0000
     54 H           3.5345   12.1149   10.5911 H       1  LIG1        0.0000
     55 H           2.4924   10.9584    8.7869 H       1  LIG1        0.0000
     56 H           3.9783   10.3472    9.0789 H       1  LIG1        0.0000
     57 H           0.3134    8.1080    8.3642 H       1  LIG1        0.0000
     58 H           0.2302    6.8913    6.3004 H       1  LIG1        0.0000
     59 H           3.0848    4.3489    2.1484 H       1  LIG1        0.0000
     60 H           1.6869    5.0881    2.5562 H       1  LIG1        0.0000
     61 H           0.4304    3.2987    1.8904 H       1  LIG1        0.0000
     62 H           1.5341    3.4930    0.7027 H       1  LIG1        0.0000
@<TRIPOS>UNITY_ATOM_ATTR
2 1
charge 1
@<TRIPOS>BOND
     1     1     2    1
     2     2     3    1
     3     2     4    1
     4     4     5    1
     5     5     6    1
     6     6     7    1
     7     7     8    1
     8     8     9    1
     9     9    10   am
    10    10    11    2
    11    10    12    1
    12    12    13    1
    13    13    14   ar
    14    14    15   ar
    15    15    16   ar
    16    16    17    1
    17    17    18    1
    18    18    19    1
    19    19    20    1
    20    20    21    1
    21    21    22    1
    22    22    17    1
    23    16    23   ar
    24    23    24   ar
    25    24    13   ar
    26     9    25    1
    27    25    26    1
    28    26     6    1
    29     2    27    1
    30     1    28    1
    31     1    29    1
    32     1    30    1
    33     3    31    1
    34     3    32    1
    35     3    33    1
    36     4    34    1
    37     4    35    1
    38     5    36    1
    39     5    37    1
    40     7    38    1
    41     7    39    1
    42     8    40    1
    43     8    41    1
    44    12    42    1
    45    12    43    1
    46    14    44    1
    47    15    45    1
    48    17    46    1
    49    18    47    1
    50    18    48    1
    51    19    49    1
    52    19    50    1
    53    20    51    1
    54    20    52    1
    55    21    53    1
    56    21    54    1
    57    22    55    1
    58    22    56    1
    59    23    57    1
    60    24    58    1
    61    25    59    1
    62    25    60    1
    63    26    61    1
    64    26    62    1
