@<TRIPOS>MOLECULE
*****
 62 64 0 0 0
SMALL
USER_CHARGES

@<TRIPOS>ATOM
      1 C1         -0.7594    0.6974   -1.2104 C.3     1  LIG1        0.0000
      2 N2         -1.2729    0.6822    0.1670 N.4     1  LIG1        1.0000
      3 C3         -1.2577   -0.6951    0.6804 C.3     1  LIG1        0.0000
      4 C4         -0.4242    1.5309    1.0157 C.3     1  LIG1        0.0000
      5 C5          1.0000    1.0000    1.0000 C.3     1  LIG1        0.0000
      6 N6          1.8488    1.8488    1.8488 N.3     1  LIG1        0.0000
      7 C7          2.2694    3.0887    1.1761 C.3     1  LIG1        0.0000
      8 C8          3.5262    2.8874    0.3444 C.3     1  LIG1        0.0000
      9 N9          4.6081    2.6402    1.3076 N.am    1  LIG1        0.0000
     10 C10         5.9412    2.9998    1.0357 C.2     1  LIG1        0.0000
     11 O11         6.7986    2.7822    1.8466 O.2     1  LIG1        0.0000
     12 C12         6.2950    3.6638   -0.2850 C.3     1  LIG1        0.0000
     13 C13         6.8763    2.6273   -1.2337 C.3     1  LIG1        0.0000
     14 C14         6.0295    1.9198   -2.0795 C.3     1  LIG1        0.0000
     15 C15         6.5516    0.9687   -2.9502 C.3     1  LIG1        0.0000
     16 C16         7.9235    0.7399   -2.9609 C.3     1  LIG1        0.0000
     17 C17         8.5002   -0.2968   -3.9108 C.3     1  LIG1        0.0000
     18 C18         9.4773    0.3592   -4.8730 C.3     1  LIG1        0.0000
     19 C19        10.0513   -0.6772   -5.8254 C.3     1  LIG1        0.0000
     20 C20         8.9328   -1.3515   -6.6036 C.3     1  LIG1        0.0000
     21 C21         7.9581   -2.0091   -5.6398 C.3     1  LIG1        0.0000
     22 C22         7.3823   -0.9744   -4.6865 C.3     1  LIG1        0.0000
     23 C23         8.7789    1.4429   -2.1187 C.3     1  LIG1        0.0000
     24 C24         8.2476    2.3922   -1.2521 C.3     1  LIG1        0.0000
     25 C25         4.2123    1.9959    2.5665 C.3     1  LIG1        0.0000
     26 C26         3.0397    1.0798    2.2477 C.3     1  LIG1        0.0000
     27 H          -2.2098    1.0315    0.1773 H       1  LIG1        0.0000
     28 H          -1.3368    0.1200   -1.7877 H       1  LIG1        0.0000
     29 H          -0.7697    1.6343   -1.5596 H       1  LIG1        0.0000
     30 H           0.1775    0.3481   -1.2207 H       1  LIG1        0.0000
     31 H          -1.8351   -1.2725    0.1031 H       1  LIG1        0.0000
     32 H          -0.3208   -1.0444    0.6701 H       1  LIG1        0.0000
     33 H          -1.6070   -0.7054    1.6174 H       1  LIG1        0.0000
     34 H          -0.7735    1.5206    1.9526 H       1  LIG1        0.0000
     35 H          -0.4345    2.4679    0.6664 H       1  LIG1        0.0000
     36 H           1.0103    0.0630    1.3493 H       1  LIG1        0.0000
     37 H           1.3493    1.0103    0.0630 H       1  LIG1        0.0000
     38 H           2.4492    3.7869    1.8690 H       1  LIG1        0.0000
     39 H           1.5311    3.3968    0.5760 H       1  LIG1        0.0000
     40 H           3.4177    2.1030   -0.2664 H       1  LIG1        0.0000
     41 H           3.7211    3.7060   -0.1958 H       1  LIG1        0.0000
     42 H           5.4713    4.0611   -0.6895 H       1  LIG1        0.0000
     43 H           6.9692    4.3849   -0.1255 H       1  LIG1        0.0000
     44 H           5.0451    2.0946   -2.0620 H       1  LIG1        0.0000
     45 H           5.9481    0.4560   -3.5608 H       1  LIG1        0.0000
     46 H           8.9876   -0.9878   -3.3771 H       1  LIG1        0.0000
     47 H          10.2217    0.7784   -4.3532 H       1  LIG1        0.0000
     48 H           9.0004    1.0633   -5.3992 H       1  LIG1        0.0000
     49 H          10.5512   -1.3666   -5.3012 H       1  LIG1        0.0000
     50 H          10.6748   -0.2282   -6.4654 H       1  LIG1        0.0000
     51 H           9.3215   -2.0466   -7.2084 H       1  LIG1        0.0000
     52 H           8.4491   -0.6674   -7.1496 H       1  LIG1        0.0000
     53 H           7.2141   -2.4301   -6.1587 H       1  LIG1        0.0000
     54 H           8.4373   -2.7119   -5.1141 H       1  LIG1        0.0000
     55 H           6.8792   -0.2867   -5.2098 H       1  LIG1        0.0000
     56 H           6.7614   -1.4254   -4.0453 H       1  LIG1        0.0000
     57 H           9.7633    1.2679   -2.1362 H       1  LIG1        0.0000
     58 H           8.8512    2.9059   -0.6423 H       1  LIG1        0.0000
     59 H           3.9365    2.6872    3.2342 H       1  LIG1        0.0000
     60 H           4.9745    1.4629    2.9339 H       1  LIG1        0.0000
     61 H           3.2982    0.4691    1.4992 H       1  LIG1        0.0000
     62 H           2.8202    0.5381    3.0592 H       1  LIG1        0.0000
@<TRIPOS>UNITY_ATOM_ATTR
2 1
charge 1
@<TRIPOS>BOND
     1     1     2    1
     2     2     3    1
     3     2     4    1
     4     4     5    1
     5     5     6    1
     6     6     7    1
     7     7     8    1
     8     8     9    1
     9     9    10   am
    10    10    11    2
    11    10    12    1
    12    12    13    1
    13    13    14   ar
    14    14    15   ar
    15    15    16   ar
    16    16    17    1
    17    17    18    1
    18    18    19    1
    19    19    20    1
    20    20    21    1
    21    21    22    1
    22    22    17    1
    23    16    23   ar
    24    23    24   ar
    25    24    13   ar
    26     9    25    1
    27    25    26    1
    28    26     6    1
    29     2    27    1
    30     1    28    1
    31     1    29    1
    32     1    30    1
    33     3    31    1
    34     3    32    1
    35     3    33    1
    36     4    34    1
    37     4    35    1
    38     5    36    1
    39     5    37    1
    40     7    38    1
    41     7    39    1
    42     8    40    1
    43     8    41    1
    44    12    42    1
    45    12    43    1
    46    14    44    1
    47    15    45    1
    48    17    46    1
    49    18    47    1
    50    18    48    1
    51    19    49    1
    52    19    50    1
    53    20    51    1
    54    20    52    1
    55    21    53    1
    56    21    54    1
    57    22    55    1
    58    22    56    1
    59    23    57    1
    60    24    58    1
    61    25    59    1
    62    25    60    1
    63    26    61    1
    64    26    62    1
