@<TRIPOS>MOLECULE
*****
 62 64 0 0 0
SMALL
USER_CHARGES

@<TRIPOS>ATOM
      1 C1         -0.7594    0.6974   -1.2104 C.3     1  LIG1        0.0000
      2 N2         -1.2729    0.6822    0.1670 N.4     1  LIG1        1.0000
      3 C3         -1.2577   -0.6951    0.6804 C.3     1  LIG1        0.0000
      4 C4         -0.4242    1.5309    1.0157 C.3     1  LIG1        0.0000
      5 C5          1.0000    1.0000    1.0000 C.3     1  LIG1        0.0000
      6 N6          1.8486    1.8486    1.8486 N.3     1  LIG1        0.0000
      7 C7          2.2035    3.0500    1.0739 C.3     1  LIG1        0.0000
      8 C8          3.0291    4.0356    1.8881 C.3     1  LIG1        0.0000
      9 N9          2.4707    4.2284    3.2362 N.am    1  LIG1        0.0000
     10 C10         2.5976    5.4796    3.8511 C.2     1  LIG1        0.0000
     11 O11         3.1551    6.3753    3.2794 O.2     1  LIG1        0.0000
     12 C12         2.0293    5.7035    5.2430 C.3     1  LIG1        0.0000
     13 C13         2.2993    7.1358    5.6764 C.3     1  LIG1        0.0000
     14 C14         1.3689    8.1274    5.3868 C.3     1  LIG1        0.0000
     15 C15         1.6074    9.4408    5.7781 C.3     1  LIG1        0.0000
     16 C16         2.7821    9.7428    6.4589 C.3     1  LIG1        0.0000
     17 C17         3.0478   11.1756    6.8904 C.3     1  LIG1        0.0000
     18 C18         3.1728   11.2514    8.4035 C.3     1  LIG1        0.0000
     19 C19         3.4432   12.6843    8.8331 C.3     1  LIG1        0.0000
     20 C20         4.7177   13.2005    8.1841 C.3     1  LIG1        0.0000
     21 C21         4.5843   13.1240    6.6712 C.3     1  LIG1        0.0000
     22 C22         4.3173   11.6930    6.2331 C.3     1  LIG1        0.0000
     23 C23         3.7189    8.7576    6.7536 C.3     1  LIG1        0.0000
     24 C24         3.4713    7.4471    6.3588 C.3     1  LIG1        0.0000
     25 C25         1.7733    3.1533    3.9596 C.3     1  LIG1        0.0000
     26 C26         1.0257    2.2303    3.0078 C.3     1  LIG1        0.0000
     27 H          -2.2098    1.0315    0.1773 H       1  LIG1        0.0000
     28 H          -1.3368    0.1200   -1.7877 H       1  LIG1        0.0000
     29 H          -0.7697    1.6343   -1.5596 H       1  LIG1        0.0000
     30 H           0.1775    0.3481   -1.2207 H       1  LIG1        0.0000
     31 H          -1.8351   -1.2725    0.1031 H       1  LIG1        0.0000
     32 H          -0.3208   -1.0444    0.6701 H       1  LIG1        0.0000
     33 H          -1.6070   -0.7054    1.6174 H       1  LIG1        0.0000
     34 H          -0.7735    1.5206    1.9526 H       1  LIG1        0.0000
     35 H          -0.4345    2.4679    0.6664 H       1  LIG1        0.0000
     36 H           1.0103    0.0630    1.3493 H       1  LIG1        0.0000
     37 H           1.3493    1.0103    0.0630 H       1  LIG1        0.0000
     38 H           1.3623    3.5022    0.7774 H       1  LIG1        0.0000
     39 H           2.7326    2.7717    0.2723 H       1  LIG1        0.0000
     40 H           3.9624    3.6863    1.9706 H       1  LIG1        0.0000
     41 H           3.0433    4.9160    1.4141 H       1  LIG1        0.0000
     42 H           1.0430    5.5393    5.2307 H       1  LIG1        0.0000
     43 H           2.4642    5.0730    5.8860 H       1  LIG1        0.0000
     44 H           0.5281    7.8964    4.8971 H       1  LIG1        0.0000
     45 H           0.9425   10.1590    5.5725 H       1  LIG1        0.0000
     46 H           2.2796   11.7469    6.6015 H       1  LIG1        0.0000
     47 H           3.9278   10.6681    8.7028 H       1  LIG1        0.0000
     48 H           2.3213   10.9355    8.8221 H       1  LIG1        0.0000
     49 H           3.5432   12.7170    9.8275 H       1  LIG1        0.0000
     50 H           2.6752   13.2619    8.5562 H       1  LIG1        0.0000
     51 H           5.4920   12.6406    8.4790 H       1  LIG1        0.0000
     52 H           4.8698   14.1502    8.4575 H       1  LIG1        0.0000
     53 H           3.8253   13.7052    6.3777 H       1  LIG1        0.0000
     54 H           5.4323   13.4447    6.2492 H       1  LIG1        0.0000
     55 H           4.2103   11.6655    5.2393 H       1  LIG1        0.0000
     56 H           5.0881   11.1153    6.5016 H       1  LIG1        0.0000
     57 H           4.5597    8.9887    7.2431 H       1  LIG1        0.0000
     58 H           4.1355    6.7287    6.5654 H       1  LIG1        0.0000
     59 H           1.1192    3.5618    4.5961 H       1  LIG1        0.0000
     60 H           2.4452    2.6171    4.4705 H       1  LIG1        0.0000
     61 H           0.7611    1.4024    3.5024 H       1  LIG1        0.0000
     62 H           0.2055    2.6997    2.6808 H       1  LIG1        0.0000
@<TRIPOS>UNITY_ATOM_ATTR
2 1
charge 1
@<TRIPOS>BOND
     1     1     2    1
     2     2     3    1
     3     2     4    1
     4     4     5    1
     5     5     6    1
     6     6     7    1
     7     7     8    1
     8     8     9    1
     9     9    10   am
    10    10    11    2
    11    10    12    1
    12    12    13    1
    13    13    14   ar
    14    14    15   ar
    15    15    16   ar
    16    16    17    1
    17    17    18    1
    18    18    19    1
    19    19    20    1
    20    20    21    1
    21    21    22    1
    22    22    17    1
    23    16    23   ar
    24    23    24   ar
    25    24    13   ar
    26     9    25    1
    27    25    26    1
    28    26     6    1
    29     2    27    1
    30     1    28    1
    31     1    29    1
    32     1    30    1
    33     3    31    1
    34     3    32    1
    35     3    33    1
    36     4    34    1
    37     4    35    1
    38     5    36    1
    39     5    37    1
    40     7    38    1
    41     7    39    1
    42     8    40    1
    43     8    41    1
    44    12    42    1
    45    12    43    1
    46    14    44    1
    47    15    45    1
    48    17    46    1
    49    18    47    1
    50    18    48    1
    51    19    49    1
    52    19    50    1
    53    20    51    1
    54    20    52    1
    55    21    53    1
    56    21    54    1
    57    22    55    1
    58    22    56    1
    59    23    57    1
    60    24    58    1
    61    25    59    1
    62    25    60    1
    63    26    61    1
    64    26    62    1
