@<TRIPOS>MOLECULE
*****
 62 64 0 0 0
SMALL
USER_CHARGES

@<TRIPOS>ATOM
      1 C1         -0.7594    0.6974   -1.2104 C.3     1  LIG1        0.0000
      2 N2         -1.2729    0.6822    0.1670 N.4     1  LIG1        1.0000
      3 C3         -1.2577   -0.6951    0.6804 C.3     1  LIG1        0.0000
      4 C4         -0.4242    1.5309    1.0157 C.3     1  LIG1        0.0000
      5 C5          1.0000    1.0000    1.0000 C.3     1  LIG1        0.0000
      6 N6          1.8486    1.8486    1.8486 N.3     1  LIG1        0.0000
      7 C7          2.2035    3.0500    1.0739 C.3     1  LIG1        0.0000
      8 C8          3.0291    4.0356    1.8881 C.3     1  LIG1        0.0000
      9 N9          2.4707    4.2284    3.2362 N.am    1  LIG1        0.0000
     10 C10         2.5976    5.4796    3.8511 C.2     1  LIG1        0.0000
     11 O11         3.1551    6.3753    3.2794 O.2     1  LIG1        0.0000
     12 C12         2.0293    5.7035    5.2430 C.3     1  LIG1        0.0000
     13 C13         3.1484    5.6108    6.2683 C.3     1  LIG1        0.0000
     14 C14         3.8523    6.7566    6.6213 C.3     1  LIG1        0.0000
     15 C15         4.8785    6.6818    7.5576 C.3     1  LIG1        0.0000
     16 C16         5.1854    5.4521    8.1304 C.3     1  LIG1        0.0000
     17 C17         6.3045    5.3640    9.1550 C.3     1  LIG1        0.0000
     18 C18         5.7579    4.8717   10.4853 C.3     1  LIG1        0.0000
     19 C19         6.8792    4.7798   11.5076 C.3     1  LIG1        0.0000
     20 C20         7.9675    3.8379   11.0171 C.3     1  LIG1        0.0000
     21 C21         8.5109    4.3381    9.6878 C.3     1  LIG1        0.0000
     22 C22         7.3958    4.4293    8.6586 C.3     1  LIG1        0.0000
     23 C23         4.4866    4.3002    7.7841 C.3     1  LIG1        0.0000
     24 C24         3.4618    4.3851    6.8475 C.3     1  LIG1        0.0000
     25 C25         1.7733    3.1533    3.9596 C.3     1  LIG1        0.0000
     26 C26         1.0257    2.2303    3.0078 C.3     1  LIG1        0.0000
     27 H          -2.2098    1.0315    0.1773 H       1  LIG1        0.0000
     28 H          -1.3368    0.1200   -1.7877 H       1  LIG1        0.0000
     29 H          -0.7697    1.6343   -1.5596 H       1  LIG1        0.0000
     30 H           0.1775    0.3481   -1.2207 H       1  LIG1        0.0000
     31 H          -1.8351   -1.2725    0.1031 H       1  LIG1        0.0000
     32 H          -0.3208   -1.0444    0.6701 H       1  LIG1        0.0000
     33 H          -1.6070   -0.7054    1.6174 H       1  LIG1        0.0000
     34 H          -0.7735    1.5206    1.9526 H       1  LIG1        0.0000
     35 H          -0.4345    2.4679    0.6664 H       1  LIG1        0.0000
     36 H           1.0103    0.0630    1.3493 H       1  LIG1        0.0000
     37 H           1.3493    1.0103    0.0630 H       1  LIG1        0.0000
     38 H           1.3623    3.5022    0.7774 H       1  LIG1        0.0000
     39 H           2.7326    2.7717    0.2723 H       1  LIG1        0.0000
     40 H           3.9624    3.6863    1.9706 H       1  LIG1        0.0000
     41 H           3.0433    4.9160    1.4141 H       1  LIG1        0.0000
     42 H           1.6088    6.6095    5.2895 H       1  LIG1        0.0000
     43 H           1.3401    5.0056    5.4378 H       1  LIG1        0.0000
     44 H           3.6210    7.6345    6.2021 H       1  LIG1        0.0000
     45 H           5.3892    7.5020    7.8155 H       1  LIG1        0.0000
     46 H           6.6951    6.2754    9.2846 H       1  LIG1        0.0000
     47 H           5.3487    3.9678   10.3608 H       1  LIG1        0.0000
     48 H           5.0620    5.5102   10.8139 H       1  LIG1        0.0000
     49 H           6.5105    4.4359   12.3712 H       1  LIG1        0.0000
     50 H           7.2702    5.6890   11.6505 H       1  LIG1        0.0000
     51 H           7.5858    2.9214   10.8973 H       1  LIG1        0.0000
     52 H           8.7077    3.8056   11.6886 H       1  LIG1        0.0000
     53 H           8.9147    5.2437    9.8169 H       1  LIG1        0.0000
     54 H           9.2113    3.7046    9.3591 H       1  LIG1        0.0000
     55 H           7.7667    4.7805    7.7989 H       1  LIG1        0.0000
     56 H           7.0092    3.5195    8.5078 H       1  LIG1        0.0000
     57 H           4.7181    3.4222    8.2032 H       1  LIG1        0.0000
     58 H           2.9503    3.5652    6.5903 H       1  LIG1        0.0000
     59 H           1.1192    3.5618    4.5961 H       1  LIG1        0.0000
     60 H           2.4452    2.6171    4.4705 H       1  LIG1        0.0000
     61 H           0.7611    1.4024    3.5024 H       1  LIG1        0.0000
     62 H           0.2055    2.6997    2.6808 H       1  LIG1        0.0000
@<TRIPOS>UNITY_ATOM_ATTR
2 1
charge 1
@<TRIPOS>BOND
     1     1     2    1
     2     2     3    1
     3     2     4    1
     4     4     5    1
     5     5     6    1
     6     6     7    1
     7     7     8    1
     8     8     9    1
     9     9    10   am
    10    10    11    2
    11    10    12    1
    12    12    13    1
    13    13    14   ar
    14    14    15   ar
    15    15    16   ar
    16    16    17    1
    17    17    18    1
    18    18    19    1
    19    19    20    1
    20    20    21    1
    21    21    22    1
    22    22    17    1
    23    16    23   ar
    24    23    24   ar
    25    24    13   ar
    26     9    25    1
    27    25    26    1
    28    26     6    1
    29     2    27    1
    30     1    28    1
    31     1    29    1
    32     1    30    1
    33     3    31    1
    34     3    32    1
    35     3    33    1
    36     4    34    1
    37     4    35    1
    38     5    36    1
    39     5    37    1
    40     7    38    1
    41     7    39    1
    42     8    40    1
    43     8    41    1
    44    12    42    1
    45    12    43    1
    46    14    44    1
    47    15    45    1
    48    17    46    1
    49    18    47    1
    50    18    48    1
    51    19    49    1
    52    19    50    1
    53    20    51    1
    54    20    52    1
    55    21    53    1
    56    21    54    1
    57    22    55    1
    58    22    56    1
    59    23    57    1
    60    24    58    1
    61    25    59    1
    62    25    60    1
    63    26    61    1
    64    26    62    1
