@<TRIPOS>MOLECULE
*****
 62 64 0 0 0
SMALL
USER_CHARGES

@<TRIPOS>ATOM
      1 C1         -0.7594    0.6974   -1.2104 C.3     1  LIG1        0.0000
      2 N2         -1.2729    0.6822    0.1670 N.4     1  LIG1        1.0000
      3 C3         -1.2577   -0.6951    0.6804 C.3     1  LIG1        0.0000
      4 C4         -0.4242    1.5309    1.0157 C.3     1  LIG1        0.0000
      5 C5          1.0000    1.0000    1.0000 C.3     1  LIG1        0.0000
      6 N6          1.8489    1.8489    1.8489 N.3     1  LIG1        0.0000
      7 C7          1.6193    1.4365    3.2432 C.3     1  LIG1        0.0000
      8 C8          2.4101    2.2821    4.2316 C.3     1  LIG1        0.0000
      9 N9          2.3118    3.7160    3.9155 N.am    1  LIG1        0.0000
     10 C10         2.3363    4.6361    4.9696 C.2     1  LIG1        0.0000
     11 O11         2.2579    5.8117    4.7419 O.2     1  LIG1        0.0000
     12 C12         2.4624    4.1463    6.4031 C.3     1  LIG1        0.0000
     13 C13         3.9039    4.2932    6.8640 C.3     1  LIG1        0.0000
     14 C14         4.3125    5.4738    7.4740 C.3     1  LIG1        0.0000
     15 C15         5.6296    5.6181    7.8981 C.3     1  LIG1        0.0000
     16 C16         6.5231    4.5700    7.7039 C.3     1  LIG1        0.0000
     17 C17         7.9629    4.7210    8.1663 C.3     1  LIG1        0.0000
     18 C18         8.6254    5.8825    7.4432 C.3     1  LIG1        0.0000
     19 C19        10.0639    6.0350    7.9103 C.3     1  LIG1        0.0000
     20 C20        10.1115    6.2682    9.4121 C.3     1  LIG1        0.0000
     21 C21         9.4496    5.1015   10.1285 C.3     1  LIG1        0.0000
     22 C22         8.0089    4.9446    9.6694 C.3     1  LIG1        0.0000
     23 C23         6.1238    3.3848    7.0950 C.3     1  LIG1        0.0000
     24 C24         4.8047    3.2496    6.6749 C.3     1  LIG1        0.0000
     25 C25         2.1734    4.2146    2.5375 C.3     1  LIG1        0.0000
     26 C26         1.4018    3.2390    1.6608 C.3     1  LIG1        0.0000
     27 H          -2.2098    1.0315    0.1773 H       1  LIG1        0.0000
     28 H          -1.3368    0.1200   -1.7877 H       1  LIG1        0.0000
     29 H          -0.7697    1.6343   -1.5596 H       1  LIG1        0.0000
     30 H           0.1775    0.3481   -1.2207 H       1  LIG1        0.0000
     31 H          -1.8351   -1.2725    0.1031 H       1  LIG1        0.0000
     32 H          -0.3208   -1.0444    0.6701 H       1  LIG1        0.0000
     33 H          -1.6070   -0.7054    1.6174 H       1  LIG1        0.0000
     34 H          -0.7735    1.5206    1.9526 H       1  LIG1        0.0000
     35 H          -0.4345    2.4679    0.6664 H       1  LIG1        0.0000
     36 H           1.0103    0.0630    1.3493 H       1  LIG1        0.0000
     37 H           1.3493    1.0103    0.0630 H       1  LIG1        0.0000
     38 H           1.8941    0.4805    3.3455 H       1  LIG1        0.0000
     39 H           0.6450    1.5272    3.4494 H       1  LIG1        0.0000
     40 H           2.0509    2.1270    5.1519 H       1  LIG1        0.0000
     41 H           3.3710    2.0073    4.1981 H       1  LIG1        0.0000
     42 H           1.8663    4.6895    6.9945 H       1  LIG1        0.0000
     43 H           2.1932    3.1845    6.4516 H       1  LIG1        0.0000
     44 H           3.6596    6.2193    7.6079 H       1  LIG1        0.0000
     45 H           5.9301    6.4649    8.3371 H       1  LIG1        0.0000
     46 H           8.4605    3.8809    7.9502 H       1  LIG1        0.0000
     47 H           8.1227    6.7244    7.6394 H       1  LIG1        0.0000
     48 H           8.6138    5.7092    6.4584 H       1  LIG1        0.0000
     49 H          10.4815    6.8140    7.4425 H       1  LIG1        0.0000
     50 H          10.5720    5.2024    7.6898 H       1  LIG1        0.0000
     51 H           9.6259    7.1139    9.6335 H       1  LIG1        0.0000
     52 H          11.0639    6.3435    9.7075 H       1  LIG1        0.0000
     53 H           9.9532    4.2618    9.9253 H       1  LIG1        0.0000
     54 H           9.4646    5.2690   11.1142 H       1  LIG1        0.0000
     55 H           7.5971    4.1604   10.1335 H       1  LIG1        0.0000
     56 H           7.4969    5.7730    9.8966 H       1  LIG1        0.0000
     57 H           6.7768    2.6394    6.9609 H       1  LIG1        0.0000
     58 H           4.5038    2.4025    6.2369 H       1  LIG1        0.0000
     59 H           3.0848    4.3489    2.1484 H       1  LIG1        0.0000
     60 H           1.6869    5.0881    2.5562 H       1  LIG1        0.0000
     61 H           0.4304    3.2987    1.8904 H       1  LIG1        0.0000
     62 H           1.5341    3.4930    0.7027 H       1  LIG1        0.0000
@<TRIPOS>UNITY_ATOM_ATTR
2 1
charge 1
@<TRIPOS>BOND
     1     1     2    1
     2     2     3    1
     3     2     4    1
     4     4     5    1
     5     5     6    1
     6     6     7    1
     7     7     8    1
     8     8     9    1
     9     9    10   am
    10    10    11    2
    11    10    12    1
    12    12    13    1
    13    13    14   ar
    14    14    15   ar
    15    15    16   ar
    16    16    17    1
    17    17    18    1
    18    18    19    1
    19    19    20    1
    20    20    21    1
    21    21    22    1
    22    22    17    1
    23    16    23   ar
    24    23    24   ar
    25    24    13   ar
    26     9    25    1
    27    25    26    1
    28    26     6    1
    29     2    27    1
    30     1    28    1
    31     1    29    1
    32     1    30    1
    33     3    31    1
    34     3    32    1
    35     3    33    1
    36     4    34    1
    37     4    35    1
    38     5    36    1
    39     5    37    1
    40     7    38    1
    41     7    39    1
    42     8    40    1
    43     8    41    1
    44    12    42    1
    45    12    43    1
    46    14    44    1
    47    15    45    1
    48    17    46    1
    49    18    47    1
    50    18    48    1
    51    19    49    1
    52    19    50    1
    53    20    51    1
    54    20    52    1
    55    21    53    1
    56    21    54    1
    57    22    55    1
    58    22    56    1
    59    23    57    1
    60    24    58    1
    61    25    59    1
    62    25    60    1
    63    26    61    1
    64    26    62    1
