@<TRIPOS>MOLECULE
*****
 62 64 0 0 0
SMALL
USER_CHARGES

@<TRIPOS>ATOM
      1 C1         -0.7594    0.6974   -1.2104 C.3     1  LIG1        0.0000
      2 N2         -1.2729    0.6822    0.1670 N.4     1  LIG1        1.0000
      3 C3         -1.2577   -0.6951    0.6804 C.3     1  LIG1        0.0000
      4 C4         -0.4242    1.5309    1.0157 C.3     1  LIG1        0.0000
      5 C5          1.0000    1.0000    1.0000 C.3     1  LIG1        0.0000
      6 N6          1.8486    1.8486    1.8486 N.3     1  LIG1        0.0000
      7 C7          2.2463    3.0749    1.1406 C.3     1  LIG1        0.0000
      8 C8          2.9103    4.0494    2.0992 C.3     1  LIG1        0.0000
      9 N9          3.3698    3.3331    3.2994 N.am    1  LIG1        0.0000
     10 C10         3.3817    4.0187    4.5103 C.2     1  LIG1        0.0000
     11 O11         3.7503    3.4656    5.5094 O.2     1  LIG1        0.0000
     12 C12         2.9278    5.4683    4.5674 C.3     1  LIG1        0.0000
     13 C13         1.4992    5.5321    5.0844 C.3     1  LIG1        0.0000
     14 C14         1.2682    5.6458    6.4506 C.3     1  LIG1        0.0000
     15 C15        -0.0352    5.7037    6.9334 C.3     1  LIG1        0.0000
     16 C16        -1.0945    5.6473    6.0338 C.3     1  LIG1        0.0000
     17 C17        -2.5207    5.7116    6.5548 C.3     1  LIG1        0.0000
     18 C18        -2.7925    4.5411    7.4859 C.3     1  LIG1        0.0000
     19 C19        -4.2202    4.6036    8.0040 C.3     1  LIG1        0.0000
     20 C20        -5.2016    4.5800    6.8431 C.3     1  LIG1        0.0000
     21 C21        -4.9298    5.7527    5.9146 C.3     1  LIG1        0.0000
     22 C22        -3.5026    5.6921    5.3946 C.3     1  LIG1        0.0000
     23 C23        -0.8736    5.5339    4.6651 C.3     1  LIG1        0.0000
     24 C24         0.4331    5.4773    4.1919 C.3     1  LIG1        0.0000
     25 C25         3.8041    1.9292    3.3302 C.3     1  LIG1        0.0000
     26 C26         3.0438    1.1170    2.2950 C.3     1  LIG1        0.0000
     27 H          -2.2098    1.0315    0.1773 H       1  LIG1        0.0000
     28 H          -1.3368    0.1200   -1.7877 H       1  LIG1        0.0000
     29 H          -0.7697    1.6343   -1.5596 H       1  LIG1        0.0000
     30 H           0.1775    0.3481   -1.2207 H       1  LIG1        0.0000
     31 H          -1.8351   -1.2725    0.1031 H       1  LIG1        0.0000
     32 H          -0.3208   -1.0444    0.6701 H       1  LIG1        0.0000
     33 H          -1.6070   -0.7054    1.6174 H       1  LIG1        0.0000
     34 H          -0.7735    1.5206    1.9526 H       1  LIG1        0.0000
     35 H          -0.4345    2.4679    0.6664 H       1  LIG1        0.0000
     36 H           1.0103    0.0630    1.3493 H       1  LIG1        0.0000
     37 H           1.3493    1.0103    0.0630 H       1  LIG1        0.0000
     38 H           1.4348    3.5042    0.7442 H       1  LIG1        0.0000
     39 H           2.8892    2.8404    0.4114 H       1  LIG1        0.0000
     40 H           3.6934    4.4774    1.6480 H       1  LIG1        0.0000
     41 H           2.2525    4.7542    2.3648 H       1  LIG1        0.0000
     42 H           3.5277    5.9814    5.1813 H       1  LIG1        0.0000
     43 H           2.9688    5.8668    3.6512 H       1  LIG1        0.0000
     44 H           2.0391    5.6859    7.0864 H       1  LIG1        0.0000
     45 H          -0.2083    5.7850    7.9149 H       1  LIG1        0.0000
     46 H          -2.6400    6.5638    7.0643 H       1  LIG1        0.0000
     47 H          -2.1587    4.5793    8.2584 H       1  LIG1        0.0000
     48 H          -2.6592    3.6845    6.9874 H       1  LIG1        0.0000
     49 H          -4.3457    5.4476    8.5255 H       1  LIG1        0.0000
     50 H          -4.3911    3.8168    8.5971 H       1  LIG1        0.0000
     51 H          -6.1349    4.6455    7.1960 H       1  LIG1        0.0000
     52 H          -5.0960    3.7242    6.3366 H       1  LIG1        0.0000
     53 H          -5.5642    5.7164    5.1425 H       1  LIG1        0.0000
     54 H          -5.0627    6.6080    6.4153 H       1  LIG1        0.0000
     55 H          -3.3775    4.8501    4.8700 H       1  LIG1        0.0000
     56 H          -3.3322    6.4811    4.8043 H       1  LIG1        0.0000
     57 H          -1.6445    5.4936    4.0294 H       1  LIG1        0.0000
     58 H           0.6064    5.3972    3.2103 H       1  LIG1        0.0000
     59 H           3.6300    1.5502    4.2391 H       1  LIG1        0.0000
     60 H           4.7830    1.8826    3.1315 H       1  LIG1        0.0000
     61 H           3.6380    0.9453    1.5092 H       1  LIG1        0.0000
     62 H           2.7653    0.2457    2.6990 H       1  LIG1        0.0000
@<TRIPOS>UNITY_ATOM_ATTR
2 1
charge 1
@<TRIPOS>BOND
     1     1     2    1
     2     2     3    1
     3     2     4    1
     4     4     5    1
     5     5     6    1
     6     6     7    1
     7     7     8    1
     8     8     9    1
     9     9    10   am
    10    10    11    2
    11    10    12    1
    12    12    13    1
    13    13    14   ar
    14    14    15   ar
    15    15    16   ar
    16    16    17    1
    17    17    18    1
    18    18    19    1
    19    19    20    1
    20    20    21    1
    21    21    22    1
    22    22    17    1
    23    16    23   ar
    24    23    24   ar
    25    24    13   ar
    26     9    25    1
    27    25    26    1
    28    26     6    1
    29     2    27    1
    30     1    28    1
    31     1    29    1
    32     1    30    1
    33     3    31    1
    34     3    32    1
    35     3    33    1
    36     4    34    1
    37     4    35    1
    38     5    36    1
    39     5    37    1
    40     7    38    1
    41     7    39    1
    42     8    40    1
    43     8    41    1
    44    12    42    1
    45    12    43    1
    46    14    44    1
    47    15    45    1
    48    17    46    1
    49    18    47    1
    50    18    48    1
    51    19    49    1
    52    19    50    1
    53    20    51    1
    54    20    52    1
    55    21    53    1
    56    21    54    1
    57    22    55    1
    58    22    56    1
    59    23    57    1
    60    24    58    1
    61    25    59    1
    62    25    60    1
    63    26    61    1
    64    26    62    1
