@<TRIPOS>MOLECULE
*****
 62 64 0 0 0
SMALL
USER_CHARGES

@<TRIPOS>ATOM
      1 C1         -0.7594    0.6974   -1.2104 C.3     1  LIG1        0.0000
      2 N2         -1.2729    0.6822    0.1670 N.4     1  LIG1        1.0000
      3 C3         -1.2577   -0.6951    0.6804 C.3     1  LIG1        0.0000
      4 C4         -0.4242    1.5309    1.0157 C.3     1  LIG1        0.0000
      5 C5          1.0000    1.0000    1.0000 C.3     1  LIG1        0.0000
      6 N6          1.8486    1.8486    1.8486 N.3     1  LIG1        0.0000
      7 C7          1.6864    1.5082    3.2700 C.3     1  LIG1        0.0000
      8 C8          2.3888    2.5333    4.1464 C.3     1  LIG1        0.0000
      9 N9          3.3582    3.3003    3.3510 N.am    1  LIG1        0.0000
     10 C10         3.5629    4.6293    3.7174 C.2     1  LIG1        0.0000
     11 O11         2.9601    5.0958    4.6442 O.2     1  LIG1        0.0000
     12 C12         4.5498    5.4878    2.9432 C.3     1  LIG1        0.0000
     13 C13         3.7938    6.3672    1.9597 C.3     1  LIG1        0.0000
     14 C14         3.3620    7.6275    2.3576 C.3     1  LIG1        0.0000
     15 C15         2.6687    8.4391    1.4655 C.3     1  LIG1        0.0000
     16 C16         2.4174    7.9728    0.1794 C.3     1  LIG1        0.0000
     17 C17         1.6617    8.8553   -0.8005 C.3     1  LIG1        0.0000
     18 C18         2.5302    9.1548   -2.0116 C.3     1  LIG1        0.0000
     19 C19         1.7712   10.0336   -2.9927 C.3     1  LIG1        0.0000
     20 C20         0.4882    9.3480   -3.4353 C.3     1  LIG1        0.0000
     21 C21        -0.3761    9.0539   -2.2191 C.3     1  LIG1        0.0000
     22 C22         0.3748    8.1722   -1.2344 C.3     1  LIG1        0.0000
     23 C23         2.8457    6.7136   -0.2282 C.3     1  LIG1        0.0000
     24 C24         3.5387    5.9097    0.6706 C.3     1  LIG1        0.0000
     25 C25         4.0924    2.7661    2.1940 C.3     1  LIG1        0.0000
     26 C26         3.2685    1.6913    1.5033 C.3     1  LIG1        0.0000
     27 H          -2.2098    1.0315    0.1773 H       1  LIG1        0.0000
     28 H          -1.3368    0.1200   -1.7877 H       1  LIG1        0.0000
     29 H          -0.7697    1.6343   -1.5596 H       1  LIG1        0.0000
     30 H           0.1775    0.3481   -1.2207 H       1  LIG1        0.0000
     31 H          -1.8351   -1.2725    0.1031 H       1  LIG1        0.0000
     32 H          -0.3208   -1.0444    0.6701 H       1  LIG1        0.0000
     33 H          -1.6070   -0.7054    1.6174 H       1  LIG1        0.0000
     34 H          -0.7735    1.5206    1.9526 H       1  LIG1        0.0000
     35 H          -0.4345    2.4679    0.6664 H       1  LIG1        0.0000
     36 H           1.0103    0.0630    1.3493 H       1  LIG1        0.0000
     37 H           1.3493    1.0103    0.0630 H       1  LIG1        0.0000
     38 H           2.0809    0.6050    3.4392 H       1  LIG1        0.0000
     39 H           0.7124    1.4942    3.4960 H       1  LIG1        0.0000
     40 H           1.7104    3.1580    4.5329 H       1  LIG1        0.0000
     41 H           2.8680    2.0621    4.8869 H       1  LIG1        0.0000
     42 H           5.0618    6.0639    3.5802 H       1  LIG1        0.0000
     43 H           5.1842    4.8980    2.4435 H       1  LIG1        0.0000
     44 H           3.5499    7.9506    3.2851 H       1  LIG1        0.0000
     45 H           2.3549    9.3464    1.7453 H       1  LIG1        0.0000
     46 H           1.4323    9.7168   -0.3475 H       1  LIG1        0.0000
     47 H           2.7796    8.2967   -2.4604 H       1  LIG1        0.0000
     48 H           3.3592    9.6292   -1.7152 H       1  LIG1        0.0000
     49 H           2.3455   10.2063   -3.7929 H       1  LIG1        0.0000
     50 H           1.5454   10.9019   -2.5509 H       1  LIG1        0.0000
     51 H           0.7116    8.4914   -3.9003 H       1  LIG1        0.0000
     52 H          -0.0107    9.9470   -4.0616 H       1  LIG1        0.0000
     53 H          -0.6187    9.9147   -1.7717 H       1  LIG1        0.0000
     54 H          -1.2088    8.5846   -2.5127 H       1  LIG1        0.0000
     55 H          -0.1995    8.0079   -0.4325 H       1  LIG1        0.0000
     56 H           0.5941    7.3000   -1.6716 H       1  LIG1        0.0000
     57 H           2.6576    6.3905   -1.1557 H       1  LIG1        0.0000
     58 H           3.8536    5.0029    0.3905 H       1  LIG1        0.0000
     59 H           4.9572    2.3715    2.5046 H       1  LIG1        0.0000
     60 H           4.2770    3.5073    1.5485 H       1  LIG1        0.0000
     61 H           3.3798    1.7738    0.5129 H       1  LIG1        0.0000
     62 H           3.5839    0.7900    1.8003 H       1  LIG1        0.0000
@<TRIPOS>UNITY_ATOM_ATTR
2 1
charge 1
@<TRIPOS>BOND
     1     1     2    1
     2     2     3    1
     3     2     4    1
     4     4     5    1
     5     5     6    1
     6     6     7    1
     7     7     8    1
     8     8     9    1
     9     9    10   am
    10    10    11    2
    11    10    12    1
    12    12    13    1
    13    13    14   ar
    14    14    15   ar
    15    15    16   ar
    16    16    17    1
    17    17    18    1
    18    18    19    1
    19    19    20    1
    20    20    21    1
    21    21    22    1
    22    22    17    1
    23    16    23   ar
    24    23    24   ar
    25    24    13   ar
    26     9    25    1
    27    25    26    1
    28    26     6    1
    29     2    27    1
    30     1    28    1
    31     1    29    1
    32     1    30    1
    33     3    31    1
    34     3    32    1
    35     3    33    1
    36     4    34    1
    37     4    35    1
    38     5    36    1
    39     5    37    1
    40     7    38    1
    41     7    39    1
    42     8    40    1
    43     8    41    1
    44    12    42    1
    45    12    43    1
    46    14    44    1
    47    15    45    1
    48    17    46    1
    49    18    47    1
    50    18    48    1
    51    19    49    1
    52    19    50    1
    53    20    51    1
    54    20    52    1
    55    21    53    1
    56    21    54    1
    57    22    55    1
    58    22    56    1
    59    23    57    1
    60    24    58    1
    61    25    59    1
    62    25    60    1
    63    26    61    1
    64    26    62    1
