@<TRIPOS>MOLECULE
*****
 62 64 0 0 0
SMALL
USER_CHARGES

@<TRIPOS>ATOM
      1 C1         -0.7594    0.6974   -1.2104 C.3     1  LIG1        0.0000
      2 N2         -1.2729    0.6822    0.1670 N.4     1  LIG1        1.0000
      3 C3         -1.2577   -0.6951    0.6804 C.3     1  LIG1        0.0000
      4 C4         -0.4242    1.5309    1.0157 C.3     1  LIG1        0.0000
      5 C5          1.0000    1.0000    1.0000 C.3     1  LIG1        0.0000
      6 N6          1.8488    1.8488    1.8488 N.3     1  LIG1        0.0000
      7 C7          2.2694    3.0887    1.1761 C.3     1  LIG1        0.0000
      8 C8          3.5262    2.8874    0.3444 C.3     1  LIG1        0.0000
      9 N9          4.6081    2.6402    1.3076 N.am    1  LIG1        0.0000
     10 C10         5.9412    2.9998    1.0357 C.2     1  LIG1        0.0000
     11 O11         6.7986    2.7822    1.8466 O.2     1  LIG1        0.0000
     12 C12         6.2950    3.6638   -0.2850 C.3     1  LIG1        0.0000
     13 C13         6.4275    5.1644   -0.0784 C.3     1  LIG1        0.0000
     14 C14         7.6631    5.7041    0.2606 C.3     1  LIG1        0.0000
     15 C15         7.7941    7.0756    0.4528 C.3     1  LIG1        0.0000
     16 C16         6.6778    7.8913    0.3006 C.3     1  LIG1        0.0000
     17 C17         6.8147    9.3905    0.5078 C.3     1  LIG1        0.0000
     18 C18         7.2691    9.6847    1.9283 C.3     1  LIG1        0.0000
     19 C19         7.4025   11.1846    2.1364 C.3     1  LIG1        0.0000
     20 C20         6.0741   11.8724    1.8652 C.3     1  LIG1        0.0000
     21 C21         5.6227   11.5792    0.4435 C.3     1  LIG1        0.0000
     22 C22         5.4881   10.0797    0.2329 C.3     1  LIG1        0.0000
     23 C23         5.4374    7.3609   -0.0388 C.3     1  LIG1        0.0000
     24 C24         5.3165    5.9884   -0.2295 C.3     1  LIG1        0.0000
     25 C25         4.2123    1.9959    2.5665 C.3     1  LIG1        0.0000
     26 C26         3.0397    1.0798    2.2477 C.3     1  LIG1        0.0000
     27 H          -2.2098    1.0315    0.1773 H       1  LIG1        0.0000
     28 H          -1.3368    0.1200   -1.7877 H       1  LIG1        0.0000
     29 H          -0.7697    1.6343   -1.5596 H       1  LIG1        0.0000
     30 H           0.1775    0.3481   -1.2207 H       1  LIG1        0.0000
     31 H          -1.8351   -1.2725    0.1031 H       1  LIG1        0.0000
     32 H          -0.3208   -1.0444    0.6701 H       1  LIG1        0.0000
     33 H          -1.6070   -0.7054    1.6174 H       1  LIG1        0.0000
     34 H          -0.7735    1.5206    1.9526 H       1  LIG1        0.0000
     35 H          -0.4345    2.4679    0.6664 H       1  LIG1        0.0000
     36 H           1.0103    0.0630    1.3493 H       1  LIG1        0.0000
     37 H           1.3493    1.0103    0.0630 H       1  LIG1        0.0000
     38 H           2.4492    3.7869    1.8690 H       1  LIG1        0.0000
     39 H           1.5311    3.3968    0.5760 H       1  LIG1        0.0000
     40 H           3.4177    2.1030   -0.2664 H       1  LIG1        0.0000
     41 H           3.7211    3.7060   -0.1958 H       1  LIG1        0.0000
     42 H           7.1619    3.2958   -0.6214 H       1  LIG1        0.0000
     43 H           5.5738    3.4817   -0.9534 H       1  LIG1        0.0000
     44 H           8.4577    5.1062    0.3664 H       1  LIG1        0.0000
     45 H           8.6798    7.4702    0.6973 H       1  LIG1        0.0000
     46 H           7.4998    9.7432   -0.1297 H       1  LIG1        0.0000
     47 H           8.1546    9.2488    2.0889 H       1  LIG1        0.0000
     48 H           6.5965    9.3203    2.5724 H       1  LIG1        0.0000
     49 H           8.0946   11.5446    1.5109 H       1  LIG1        0.0000
     50 H           7.6806   11.3637    3.0801 H       1  LIG1        0.0000
     51 H           6.1815   12.8597    1.9824 H       1  LIG1        0.0000
     52 H           5.3873   11.5332    2.5081 H       1  LIG1        0.0000
     53 H           4.7379   12.0161    0.2812 H       1  LIG1        0.0000
     54 H           6.2971   11.9435   -0.1988 H       1  LIG1        0.0000
     55 H           4.7934    9.7197    0.8557 H       1  LIG1        0.0000
     56 H           5.2129    9.9021   -0.7119 H       1  LIG1        0.0000
     57 H           4.6428    7.9587   -0.1444 H       1  LIG1        0.0000
     58 H           4.4310    5.5939   -0.4752 H       1  LIG1        0.0000
     59 H           3.9365    2.6872    3.2342 H       1  LIG1        0.0000
     60 H           4.9745    1.4629    2.9339 H       1  LIG1        0.0000
     61 H           3.2982    0.4691    1.4992 H       1  LIG1        0.0000
     62 H           2.8202    0.5381    3.0592 H       1  LIG1        0.0000
@<TRIPOS>UNITY_ATOM_ATTR
2 1
charge 1
@<TRIPOS>BOND
     1     1     2    1
     2     2     3    1
     3     2     4    1
     4     4     5    1
     5     5     6    1
     6     6     7    1
     7     7     8    1
     8     8     9    1
     9     9    10   am
    10    10    11    2
    11    10    12    1
    12    12    13    1
    13    13    14   ar
    14    14    15   ar
    15    15    16   ar
    16    16    17    1
    17    17    18    1
    18    18    19    1
    19    19    20    1
    20    20    21    1
    21    21    22    1
    22    22    17    1
    23    16    23   ar
    24    23    24   ar
    25    24    13   ar
    26     9    25    1
    27    25    26    1
    28    26     6    1
    29     2    27    1
    30     1    28    1
    31     1    29    1
    32     1    30    1
    33     3    31    1
    34     3    32    1
    35     3    33    1
    36     4    34    1
    37     4    35    1
    38     5    36    1
    39     5    37    1
    40     7    38    1
    41     7    39    1
    42     8    40    1
    43     8    41    1
    44    12    42    1
    45    12    43    1
    46    14    44    1
    47    15    45    1
    48    17    46    1
    49    18    47    1
    50    18    48    1
    51    19    49    1
    52    19    50    1
    53    20    51    1
    54    20    52    1
    55    21    53    1
    56    21    54    1
    57    22    55    1
    58    22    56    1
    59    23    57    1
    60    24    58    1
    61    25    59    1
    62    25    60    1
    63    26    61    1
    64    26    62    1
