@<TRIPOS>MOLECULE

  59   61
SMALL
USER_CHARGES
@<TRIPOS>ATOM
   1 N1           7.2387     6.9191     3.2794 N.am         1    LIG   0.0000
   2 C2           6.5482     5.7358     3.2717 C.2          1    LIG   0.0000
   3 O3           6.6868     4.9544     4.1718 O.2          1    LIG   0.0000
   4 N4           5.6996     5.4447     2.2364 N.am         1    LIG   0.0000
   5 C5           4.9589     4.1754     2.2281 C.3          1    LIG   0.0000
   6 C6           5.3411     3.3587     1.0043 C.3          1    LIG   0.0000
   7 C7           4.5668     2.0504     1.0000 C.3          1    LIG   0.0000
   8 C8           3.0700     2.3163     1.0000 C.3          1    LIG   0.0000
   9 C9           2.3100     1.0000     1.0000 C.2          1    LIG   0.0000
  10 O10          2.9100    -0.0392     1.0000 O.2          1    LIG   0.0000
  11 O11          1.0000     1.0000     1.0000 O.3          1    LIG   0.0000
  12 C12          0.4360    -0.1824     1.0000 C.2          1    LIG   0.0000
  13 C13          0.1562    -0.7691    -0.1258 C.2          1    LIG   0.0000
  14 O14         -0.4551    -2.0507    -0.1258 O.3          1    LIG  -1.0000
  15 N15          0.4511    -0.1508    -1.3123 N.pl3        1    LIG   0.0000
  16 N16          0.2491     1.1971    -1.4511 N.2          1    LIG   0.0000
  17 C17         -0.6875     1.6451    -0.7550 C.2          1    LIG   0.0000
  18 C18         -1.4471     0.7529     0.0995 C.ar         1    LIG   0.0000
  19 C19         -2.1369    -0.3165    -0.4622 C.ar         1    LIG   0.0000
  20 C20         -2.8634    -1.1669     0.3647 C.ar         1    LIG   0.0000
  21 C21         -2.8946    -0.9437     1.7379 C.ar         1    LIG   0.0000
  22 C22         -2.2016     0.1281     2.2911 C.ar         1    LIG   0.0000
  23 C23         -1.4730     0.9838     1.4710 C.ar         1    LIG   0.0000
  24 C24          0.9589    -0.8964    -2.3829 C.ar         1    LIG   0.0000
  25 C25          1.2554    -0.2585    -3.5832 C.ar         1    LIG   0.0000
  26 C26          1.7591    -1.0094    -4.6399 C.ar         1    LIG   0.0000
  27 C27          1.9671    -2.3781    -4.5062 C.ar         1    LIG   0.0000
  28 C28          1.6638    -2.9952    -3.2970 C.ar         1    LIG   0.0000
  29 C29          1.8870    -4.4907    -3.1411 C.3          1    LIG   0.0000
  30 F30          3.0364    -4.7036    -2.5067 F            1    LIG   0.0000
  31 F31          0.8884    -5.0170    -2.4378 F            1    LIG   0.0000
  32 F32          1.9316    -5.0599    -4.3423 F            1    LIG   0.0000
  33 C33          1.1588    -2.2639    -2.2272 C.ar         1    LIG   0.0000
  34 C34          2.6982     3.1316     2.2281 C.3          1    LIG   0.0000
  35 C35          3.4630     4.4453     2.2371 C.3          1    LIG   0.0000
  36 H            5.1980     3.6571     3.0492 H            1    LIG   0.0000
  37 H            2.8293     2.8333     0.1786 H            1    LIG   0.0000
  38 H            7.1232     7.5703     2.5293 H            1    LIG   0.0000
  39 H            7.8582     7.1316     4.0351 H            1    LIG   0.0000
  40 H            5.5841     6.0959     1.4863 H            1    LIG   0.0000
  41 H            6.3218     3.1646     1.0271 H            1    LIG   0.0000
  42 H            5.1230     3.8769     0.1773 H            1    LIG   0.0000
  43 H            4.8081     1.5281     0.1821 H            1    LIG   0.0000
  44 H            4.8072     1.5233     1.8151 H            1    LIG   0.0000
  45 H            0.2208    -0.6337     1.8660 H            1    LIG   0.0000
  46 H           -0.9131     2.6188    -0.7873 H            1    LIG   0.0000
  47 H           -2.1107    -0.4723    -1.4497 H            1    LIG   0.0000
  48 H           -3.3634    -1.9388    -0.0278 H            1    LIG   0.0000
  49 H           -3.4178    -1.5568     2.3298 H            1    LIG   0.0000
  50 H           -2.2271     0.2836     3.2786 H            1    LIG   0.0000
  51 H           -0.9735     1.7563     1.8631 H            1    LIG   0.0000
  52 H            1.1085     0.7254    -3.6846 H            1    LIG   0.0000
  53 H            1.9744    -0.5596    -5.5067 H            1    LIG   0.0000
  54 H            2.3301    -2.9119    -5.2699 H            1    LIG   0.0000
  55 H            0.9429    -2.7138    -1.3606 H            1    LIG   0.0000
  56 H            2.9255     2.6113     3.0513 H            1    LIG   0.0000
  57 H            1.7164     3.3211     2.2140 H            1    LIG   0.0000
  58 H            3.2175     4.9771     1.4266 H            1    LIG   0.0000
  59 H            3.2246     4.9617     3.0595 H            1    LIG   0.0000
@<TRIPOS>BOND
   1        1        2 am
   2        2        3 2
   3        2        4 am
   4        4        5 1
   5        5        6 1
   6        6        7 1
   7        7        8 1
   8        8        9 1
   9        9       10 2
  10        9       11 1
  11       11       12 1
  12       12       13 2
  13       13       14 1
  14       13       15 1
  15       15       16 1
  16       16       17 2
  17       17       18 1
  18       18       19 ar
  19       19       20 ar
  20       20       21 ar
  21       21       22 ar
  22       22       23 ar
  23       23       18 ar
  24       15       24 1
  25       24       25 ar
  26       25       26 ar
  27       26       27 ar
  28       27       28 ar
  29       28       29 1
  30       29       30 1
  31       29       31 1
  32       29       32 1
  33       28       33 ar
  34       33       24 ar
  35        8       34 1
  36       34       35 1
  37       35        5 1
  38        5       36 1
  39        8       37 1
  40        1       38 1
  41        1       39 1
  42        4       40 1
  43        6       41 1
  44        6       42 1
  45        7       43 1
  46        7       44 1
  47       12       45 1
  48       17       46 1
  49       19       47 1
  50       20       48 1
  51       21       49 1
  52       22       50 1
  53       23       51 1
  54       25       52 1
  55       26       53 1
  56       27       54 1
  57       33       55 1
  58       34       56 1
  59       34       57 1
  60       35       58 1
  61       35       59 1

@<TRIPOS>MOLECULE

  59   61
SMALL
USER_CHARGES
@<TRIPOS>ATOM
   1 N1           7.2387     6.9191     3.2794 N.am         1    LIG   0.0000
   2 C2           6.5482     5.7358     3.2717 C.2          1    LIG   0.0000
   3 O3           6.6868     4.9544     4.1718 O.2          1    LIG   0.0000
   4 N4           5.6996     5.4447     2.2364 N.am         1    LIG   0.0000
   5 C5           4.9589     4.1754     2.2281 C.3          1    LIG   0.0000
   6 C6           5.3411     3.3587     1.0043 C.3          1    LIG   0.0000
   7 C7           4.5668     2.0504     1.0000 C.3          1    LIG   0.0000
   8 C8           3.0700     2.3163     1.0000 C.3          1    LIG   0.0000
   9 C9           2.3100     1.0000     1.0000 C.2          1    LIG   0.0000
  10 O10          2.9100    -0.0392     1.0000 O.2          1    LIG   0.0000
  11 O11          1.0000     1.0000     1.0000 O.3          1    LIG   0.0000
  12 C12          0.4360    -0.1824     1.0000 C.2          1    LIG   0.0000
  13 C13          0.1562    -0.7691    -0.1258 C.2          1    LIG   0.0000
  14 O14          0.4619    -0.1282    -1.3556 O.3          1    LIG  -1.0000
  15 N15         -0.4336    -2.0056    -0.1258 N.pl3        1    LIG   0.0000
  16 N16         -1.4168    -2.2956     0.7830 N.2          1    LIG   0.0000
  17 C17         -2.0947    -1.3050     1.1321 C.2          1    LIG   0.0000
  18 C18         -1.8044     0.0037     0.5787 C.ar         1    LIG   0.0000
  19 C19         -1.8885     0.2040    -0.7952 C.ar         1    LIG   0.0000
  20 C20         -1.6077     1.4622    -1.3175 C.ar         1    LIG   0.0000
  21 C21         -1.2476     2.5041    -0.4682 C.ar         1    LIG   0.0000
  22 C22         -1.1663     2.2948     0.9046 C.ar         1    LIG   0.0000
  23 C23         -1.4449     1.0392     1.4352 C.ar         1    LIG   0.0000
  24 C24         -0.0315    -2.9729    -1.0546 C.ar         1    LIG   0.0000
  25 C25         -0.6374    -4.2253    -1.0461 C.ar         1    LIG   0.0000
  26 C26         -0.2296    -5.1784    -1.9733 C.ar         1    LIG   0.0000
  27 C27          0.7677    -4.8910    -2.8991 C.ar         1    LIG   0.0000
  28 C28          1.3597    -3.6323    -2.8896 C.ar         1    LIG   0.0000
  29 C29          2.4510    -3.3087    -3.8970 C.3          1    LIG   0.0000
  30 F30          3.6406    -3.4193    -3.3128 F            1    LIG   0.0000
  31 F31          2.3778    -4.1579    -4.9180 F            1    LIG   0.0000
  32 F32          2.2893    -2.0657    -4.3418 F            1    LIG   0.0000
  33 C33          0.9678    -2.6641    -1.9712 C.ar         1    LIG   0.0000
  34 C34          2.6982     3.1316     2.2281 C.3          1    LIG   0.0000
  35 C35          3.4630     4.4453     2.2371 C.3          1    LIG   0.0000
  36 H            5.1980     3.6571     3.0492 H            1    LIG   0.0000
  37 H            2.8293     2.8333     0.1786 H            1    LIG   0.0000
  38 H            7.1232     7.5703     2.5293 H            1    LIG   0.0000
  39 H            7.8582     7.1316     4.0351 H            1    LIG   0.0000
  40 H            5.5841     6.0959     1.4863 H            1    LIG   0.0000
  41 H            6.3218     3.1646     1.0271 H            1    LIG   0.0000
  42 H            5.1230     3.8769     0.1773 H            1    LIG   0.0000
  43 H            4.8081     1.5281     0.1821 H            1    LIG   0.0000
  44 H            4.8072     1.5233     1.8151 H            1    LIG   0.0000
  45 H            0.2208    -0.6337     1.8660 H            1    LIG   0.0000
  46 H           -2.8371    -1.4150     1.7930 H            1    LIG   0.0000
  47 H           -2.1480    -0.5482    -1.4008 H            1    LIG   0.0000
  48 H           -1.6647     1.6182    -2.3036 H            1    LIG   0.0000
  49 H           -1.0464     3.4076    -0.8466 H            1    LIG   0.0000
  50 H           -0.9075     3.0472     1.5105 H            1    LIG   0.0000
  51 H           -1.3873     0.8828     2.4212 H            1    LIG   0.0000
  52 H           -1.3554    -4.4370    -0.3832 H            1    LIG   0.0000
  53 H           -0.6588    -6.0816    -1.9742 H            1    LIG   0.0000
  54 H            1.0556    -5.5808    -3.5634 H            1    LIG   0.0000
  55 H            1.3975    -1.7612    -1.9699 H            1    LIG   0.0000
  56 H            2.9255     2.6113     3.0513 H            1    LIG   0.0000
  57 H            1.7164     3.3211     2.2140 H            1    LIG   0.0000
  58 H            3.2175     4.9771     1.4266 H            1    LIG   0.0000
  59 H            3.2246     4.9617     3.0595 H            1    LIG   0.0000
@<TRIPOS>BOND
   1        1        2 am
   2        2        3 2
   3        2        4 am
   4        4        5 1
   5        5        6 1
   6        6        7 1
   7        7        8 1
   8        8        9 1
   9        9       10 2
  10        9       11 1
  11       11       12 1
  12       12       13 2
  13       13       14 1
  14       13       15 1
  15       15       16 1
  16       16       17 2
  17       17       18 1
  18       18       19 ar
  19       19       20 ar
  20       20       21 ar
  21       21       22 ar
  22       22       23 ar
  23       23       18 ar
  24       15       24 1
  25       24       25 ar
  26       25       26 ar
  27       26       27 ar
  28       27       28 ar
  29       28       29 1
  30       29       30 1
  31       29       31 1
  32       29       32 1
  33       28       33 ar
  34       33       24 ar
  35        8       34 1
  36       34       35 1
  37       35        5 1
  38        5       36 1
  39        8       37 1
  40        1       38 1
  41        1       39 1
  42        4       40 1
  43        6       41 1
  44        6       42 1
  45        7       43 1
  46        7       44 1
  47       12       45 1
  48       17       46 1
  49       19       47 1
  50       20       48 1
  51       21       49 1
  52       22       50 1
  53       23       51 1
  54       25       52 1
  55       26       53 1
  56       27       54 1
  57       33       55 1
  58       34       56 1
  59       34       57 1
  60       35       58 1
  61       35       59 1

@<TRIPOS>MOLECULE

  59   61
SMALL
USER_CHARGES
@<TRIPOS>ATOM
   1 N1           7.2387     6.9191     3.2794 N.am         1    LIG   0.0000
   2 C2           6.5482     5.7358     3.2717 C.2          1    LIG   0.0000
   3 O3           6.6868     4.9544     4.1718 O.2          1    LIG   0.0000
   4 N4           5.6996     5.4447     2.2364 N.am         1    LIG   0.0000
   5 C5           4.9589     4.1754     2.2281 C.3          1    LIG   0.0000
   6 C6           5.3411     3.3587     1.0043 C.3          1    LIG   0.0000
   7 C7           4.5668     2.0504     1.0000 C.3          1    LIG   0.0000
   8 C8           3.0700     2.3163     1.0000 C.3          1    LIG   0.0000
   9 C9           2.3100     1.0000     1.0000 C.2          1    LIG   0.0000
  10 O10          2.9100    -0.0392     1.0000 O.2          1    LIG   0.0000
  11 O11          1.0000     1.0000     1.0000 O.3          1    LIG   0.0000
  12 C12          0.4360    -0.1824     1.0000 C.2          1    LIG   0.0000
  13 C13          0.1562    -0.7691    -0.1258 C.2          1    LIG   0.0000
  14 O14          0.4619    -0.1282    -1.3556 O.3          1    LIG  -1.0000
  15 N15         -0.4336    -2.0056    -0.1258 N.pl3        1    LIG   0.0000
  16 N16         -1.4168    -2.2956    -1.0347 N.2          1    LIG   0.0000
  17 C17         -2.0947    -1.3050    -1.3838 C.2          1    LIG   0.0000
  18 C18         -1.8044     0.0037    -0.8304 C.ar         1    LIG   0.0000
  19 C19         -1.8885     0.2040     0.5436 C.ar         1    LIG   0.0000
  20 C20         -1.6092     1.4626     1.0656 C.ar         1    LIG   0.0000
  21 C21         -1.2498     2.5047     0.2163 C.ar         1    LIG   0.0000
  22 C22         -1.1679     2.2953    -1.1565 C.ar         1    LIG   0.0000
  23 C23         -1.4464     1.0396    -1.6870 C.ar         1    LIG   0.0000
  24 C24         -0.0315    -2.9729     0.8030 C.ar         1    LIG   0.0000
  25 C25         -0.6368    -4.2255     0.7939 C.ar         1    LIG   0.0000
  26 C26         -0.2295    -5.1785     1.7215 C.ar         1    LIG   0.0000
  27 C27          0.7683    -4.8913     2.6469 C.ar         1    LIG   0.0000
  28 C28          1.3599    -3.6324     2.6378 C.ar         1    LIG   0.0000
  29 C29          2.4508    -3.3086     3.6455 C.3          1    LIG   0.0000
  30 F30          3.1635    -2.2735     3.2101 F            1    LIG   0.0000
  31 F31          1.8971    -3.0047     4.8160 F            1    LIG   0.0000
  32 F32          3.2464    -4.3643     3.7922 F            1    LIG   0.0000
  33 C33          0.9678    -2.6641     1.7195 C.ar         1    LIG   0.0000
  34 C34          2.6982     3.1316     2.2281 C.3          1    LIG   0.0000
  35 C35          3.4630     4.4453     2.2371 C.3          1    LIG   0.0000
  36 H            5.1980     3.6571     3.0492 H            1    LIG   0.0000
  37 H            2.8293     2.8333     0.1786 H            1    LIG   0.0000
  38 H            7.1232     7.5703     2.5293 H            1    LIG   0.0000
  39 H            7.8582     7.1316     4.0351 H            1    LIG   0.0000
  40 H            5.5841     6.0959     1.4863 H            1    LIG   0.0000
  41 H            6.3218     3.1646     1.0271 H            1    LIG   0.0000
  42 H            5.1230     3.8769     0.1773 H            1    LIG   0.0000
  43 H            4.8081     1.5281     0.1821 H            1    LIG   0.0000
  44 H            4.8072     1.5233     1.8151 H            1    LIG   0.0000
  45 H            0.2208    -0.6337     1.8660 H            1    LIG   0.0000
  46 H           -2.8371    -1.4150    -2.0446 H            1    LIG   0.0000
  47 H           -2.1470    -0.5485     1.1493 H            1    LIG   0.0000
  48 H           -1.6665     1.6187     2.0517 H            1    LIG   0.0000
  49 H           -1.0495     3.4084     0.5946 H            1    LIG   0.0000
  50 H           -0.9088     3.0475    -1.7623 H            1    LIG   0.0000
  51 H           -1.3898     0.8835    -2.6731 H            1    LIG   0.0000
  52 H           -1.3542    -4.4376     0.1303 H            1    LIG   0.0000
  53 H           -0.6594    -6.0813     1.7230 H            1    LIG   0.0000
  54 H            1.0568    -5.5814     3.3106 H            1    LIG   0.0000
  55 H            1.3973    -1.7611     1.7183 H            1    LIG   0.0000
  56 H            2.9255     2.6113     3.0513 H            1    LIG   0.0000
  57 H            1.7164     3.3211     2.2140 H            1    LIG   0.0000
  58 H            3.2175     4.9771     1.4266 H            1    LIG   0.0000
  59 H            3.2246     4.9617     3.0595 H            1    LIG   0.0000
@<TRIPOS>BOND
   1        1        2 am
   2        2        3 2
   3        2        4 am
   4        4        5 1
   5        5        6 1
   6        6        7 1
   7        7        8 1
   8        8        9 1
   9        9       10 2
  10        9       11 1
  11       11       12 1
  12       12       13 2
  13       13       14 1
  14       13       15 1
  15       15       16 1
  16       16       17 2
  17       17       18 1
  18       18       19 ar
  19       19       20 ar
  20       20       21 ar
  21       21       22 ar
  22       22       23 ar
  23       23       18 ar
  24       15       24 1
  25       24       25 ar
  26       25       26 ar
  27       26       27 ar
  28       27       28 ar
  29       28       29 1
  30       29       30 1
  31       29       31 1
  32       29       32 1
  33       28       33 ar
  34       33       24 ar
  35        8       34 1
  36       34       35 1
  37       35        5 1
  38        5       36 1
  39        8       37 1
  40        1       38 1
  41        1       39 1
  42        4       40 1
  43        6       41 1
  44        6       42 1
  45        7       43 1
  46        7       44 1
  47       12       45 1
  48       17       46 1
  49       19       47 1
  50       20       48 1
  51       21       49 1
  52       22       50 1
  53       23       51 1
  54       25       52 1
  55       26       53 1
  56       27       54 1
  57       33       55 1
  58       34       56 1
  59       34       57 1
  60       35       58 1
  61       35       59 1

@<TRIPOS>MOLECULE

  59   61
SMALL
USER_CHARGES
@<TRIPOS>ATOM
   1 N1           7.2387     6.9191     3.2794 N.am         1    LIG   0.0000
   2 C2           6.5482     5.7358     3.2717 C.2          1    LIG   0.0000
   3 O3           6.6868     4.9544     4.1718 O.2          1    LIG   0.0000
   4 N4           5.6996     5.4447     2.2364 N.am         1    LIG   0.0000
   5 C5           4.9589     4.1754     2.2281 C.3          1    LIG   0.0000
   6 C6           5.3411     3.3587     1.0043 C.3          1    LIG   0.0000
   7 C7           4.5668     2.0504     1.0000 C.3          1    LIG   0.0000
   8 C8           3.0700     2.3163     1.0000 C.3          1    LIG   0.0000
   9 C9           2.3100     1.0000     1.0000 C.2          1    LIG   0.0000
  10 O10          2.9100    -0.0392     1.0000 O.2          1    LIG   0.0000
  11 O11          1.0000     1.0000     1.0000 O.3          1    LIG   0.0000
  12 C12          0.4360    -0.1824     1.0000 C.2          1    LIG   0.0000
  13 C13         -0.3519    -0.5267     0.0250 C.2          1    LIG   0.0000
  14 O14         -0.9632    -1.8084     0.0250 O.3          1    LIG  -1.0000
  15 N15         -0.5924     0.3469    -1.0025 N.pl3        1    LIG   0.0000
  16 N16         -1.8528     0.4555    -1.5285 N.2          1    LIG   0.0000
  17 C17         -2.7675     0.2232    -0.7088 C.2          1    LIG   0.0000
  18 C18         -2.4426    -0.1243     0.6612 C.ar         1    LIG   0.0000
  19 C19         -1.7217     0.7700     1.4456 C.ar         1    LIG   0.0000
  20 C20         -1.4138     0.4282     2.7583 C.ar         1    LIG   0.0000
  21 C21         -1.8263    -0.7968     3.2738 C.ar         1    LIG   0.0000
  22 C22         -2.5471    -1.6850     2.4822 C.ar         1    LIG   0.0000
  23 C23         -2.8587    -1.3511     1.1680 C.ar         1    LIG   0.0000
  24 C24          0.4497     1.1288    -1.5150 C.ar         1    LIG   0.0000
  25 C25          0.7012     2.3817    -0.9652 C.ar         1    LIG   0.0000
  26 C26          1.7389     3.1497    -1.4826 C.ar         1    LIG   0.0000
  27 C27          2.5188     2.6786    -2.5334 C.ar         1    LIG   0.0000
  28 C28          2.2497     1.4229    -3.0678 C.ar         1    LIG   0.0000
  29 C29          3.0959     0.8993    -4.2168 C.3          1    LIG   0.0000
  30 F30          4.2958     0.5509    -3.7609 F            1    LIG   0.0000
  31 F31          2.5021    -0.1609    -4.7575 F            1    LIG   0.0000
  32 F32          3.2302     1.8497    -5.1375 F            1    LIG   0.0000
  33 C33          1.2167     0.6381    -2.5663 C.ar         1    LIG   0.0000
  34 C34          2.6982     3.1316     2.2281 C.3          1    LIG   0.0000
  35 C35          3.4630     4.4453     2.2371 C.3          1    LIG   0.0000
  36 H            5.1980     3.6571     3.0492 H            1    LIG   0.0000
  37 H            2.8293     2.8333     0.1786 H            1    LIG   0.0000
  38 H            7.1232     7.5703     2.5293 H            1    LIG   0.0000
  39 H            7.8582     7.1316     4.0351 H            1    LIG   0.0000
  40 H            5.5841     6.0959     1.4863 H            1    LIG   0.0000
  41 H            6.3218     3.1646     1.0271 H            1    LIG   0.0000
  42 H            5.1230     3.8769     0.1773 H            1    LIG   0.0000
  43 H            4.8081     1.5281     0.1821 H            1    LIG   0.0000
  44 H            4.8072     1.5233     1.8151 H            1    LIG   0.0000
  45 H            0.6116    -0.8201     1.7500 H            1    LIG   0.0000
  46 H           -3.7233     0.2771    -0.9978 H            1    LIG   0.0000
  47 H           -1.4280     1.6490     1.0700 H            1    LIG   0.0000
  48 H           -0.8959     1.0629     3.3317 H            1    LIG   0.0000
  49 H           -1.6035    -1.0397     4.2179 H            1    LIG   0.0000
  50 H           -2.8414    -2.5637     2.8579 H            1    LIG   0.0000
  51 H           -3.3759    -1.9860     0.5941 H            1    LIG   0.0000
  52 H            0.1441     2.7251    -0.2090 H            1    LIG   0.0000
  53 H            1.9266     4.0519    -1.0943 H            1    LIG   0.0000
  54 H            3.2638     3.2358    -2.9002 H            1    LIG   0.0000
  55 H            1.0286    -0.2639    -2.9550 H            1    LIG   0.0000
  56 H            2.9255     2.6113     3.0513 H            1    LIG   0.0000
  57 H            1.7164     3.3211     2.2140 H            1    LIG   0.0000
  58 H            3.2175     4.9771     1.4266 H            1    LIG   0.0000
  59 H            3.2246     4.9617     3.0595 H            1    LIG   0.0000
@<TRIPOS>BOND
   1        1        2 am
   2        2        3 2
   3        2        4 am
   4        4        5 1
   5        5        6 1
   6        6        7 1
   7        7        8 1
   8        8        9 1
   9        9       10 2
  10        9       11 1
  11       11       12 1
  12       12       13 2
  13       13       14 1
  14       13       15 1
  15       15       16 1
  16       16       17 2
  17       17       18 1
  18       18       19 ar
  19       19       20 ar
  20       20       21 ar
  21       21       22 ar
  22       22       23 ar
  23       23       18 ar
  24       15       24 1
  25       24       25 ar
  26       25       26 ar
  27       26       27 ar
  28       27       28 ar
  29       28       29 1
  30       29       30 1
  31       29       31 1
  32       29       32 1
  33       28       33 ar
  34       33       24 ar
  35        8       34 1
  36       34       35 1
  37       35        5 1
  38        5       36 1
  39        8       37 1
  40        1       38 1
  41        1       39 1
  42        4       40 1
  43        6       41 1
  44        6       42 1
  45        7       43 1
  46        7       44 1
  47       12       45 1
  48       17       46 1
  49       19       47 1
  50       20       48 1
  51       21       49 1
  52       22       50 1
  53       23       51 1
  54       25       52 1
  55       26       53 1
  56       27       54 1
  57       33       55 1
  58       34       56 1
  59       34       57 1
  60       35       58 1
  61       35       59 1

@<TRIPOS>MOLECULE

  59   61
SMALL
USER_CHARGES
@<TRIPOS>ATOM
   1 N1           7.2387     6.9191     3.2794 N.am         1    LIG   0.0000
   2 C2           6.5482     5.7358     3.2717 C.2          1    LIG   0.0000
   3 O3           6.6868     4.9544     4.1718 O.2          1    LIG   0.0000
   4 N4           5.6996     5.4447     2.2364 N.am         1    LIG   0.0000
   5 C5           4.9589     4.1754     2.2281 C.3          1    LIG   0.0000
   6 C6           5.3411     3.3587     1.0043 C.3          1    LIG   0.0000
   7 C7           4.5668     2.0504     1.0000 C.3          1    LIG   0.0000
   8 C8           3.0700     2.3163     1.0000 C.3          1    LIG   0.0000
   9 C9           2.3100     1.0000     1.0000 C.2          1    LIG   0.0000
  10 O10          2.9100    -0.0392     1.0000 O.2          1    LIG   0.0000
  11 O11          1.0000     1.0000     1.0000 O.3          1    LIG   0.0000
  12 C12          0.4360    -0.1824     1.0000 C.2          1    LIG   0.0000
  13 C13         -0.8600    -0.2844     1.0000 C.2          1    LIG   0.0000
  14 O14         -1.4713    -1.5661     1.0000 O.3          1    LIG  -1.0000
  15 N15         -1.6359     0.8447     1.0000 N.pl3        1    LIG   0.0000
  16 N16         -1.2749     1.9240     0.2374 N.2          1    LIG   0.0000
  17 C17         -0.6461     1.6254    -0.8009 C.2          1    LIG   0.0000
  18 C18         -0.3624     0.2355    -1.1023 C.ar         1    LIG   0.0000
  19 C19         -1.4127    -0.6619    -1.2645 C.ar         1    LIG   0.0000
  20 C20         -1.1314    -1.9932    -1.5527 C.ar         1    LIG   0.0000
  21 C21          0.1889    -2.4150    -1.6762 C.ar         1    LIG   0.0000
  22 C22          1.2332    -1.5106    -1.5127 C.ar         1    LIG   0.0000
  23 C23          0.9605    -0.1773    -1.2236 C.ar         1    LIG   0.0000
  24 C24         -2.7979     0.8955     1.7793 C.ar         1    LIG   0.0000
  25 C25         -3.5788     2.0468     1.7717 C.ar         1    LIG   0.0000
  26 C26         -4.7307     2.0860     2.5501 C.ar         1    LIG   0.0000
  27 C27         -5.1036     0.9940     3.3265 C.ar         1    LIG   0.0000
  28 C28         -4.3080    -0.1470     3.3189 C.ar         1    LIG   0.0000
  29 C29         -4.7067    -1.3455     4.1645 C.3          1    LIG   0.0000
  30 F30         -3.6680    -1.7360     4.8977 F            1    LIG   0.0000
  31 F31         -5.7129    -1.0076     4.9659 F            1    LIG   0.0000
  32 F32         -5.0880    -2.3416     3.3700 F            1    LIG   0.0000
  33 C33         -3.1517    -0.2079     2.5484 C.ar         1    LIG   0.0000
  34 C34          2.6982     3.1316     2.2281 C.3          1    LIG   0.0000
  35 C35          3.4630     4.4453     2.2371 C.3          1    LIG   0.0000
  36 H            5.1980     3.6571     3.0492 H            1    LIG   0.0000
  37 H            2.8293     2.8333     0.1786 H            1    LIG   0.0000
  38 H            7.1232     7.5703     2.5293 H            1    LIG   0.0000
  39 H            7.8582     7.1316     4.0351 H            1    LIG   0.0000
  40 H            5.5841     6.0959     1.4863 H            1    LIG   0.0000
  41 H            6.3218     3.1646     1.0271 H            1    LIG   0.0000
  42 H            5.1230     3.8769     0.1773 H            1    LIG   0.0000
  43 H            4.8081     1.5281     0.1821 H            1    LIG   0.0000
  44 H            4.8072     1.5233     1.8151 H            1    LIG   0.0000
  45 H            1.0024    -1.0065     1.0000 H            1    LIG   0.0000
  46 H           -0.3387     2.3449    -1.4236 H            1    LIG   0.0000
  47 H           -2.3597    -0.3533    -1.1748 H            1    LIG   0.0000
  48 H           -1.8783    -2.6476    -1.6712 H            1    LIG   0.0000
  49 H            0.3881    -3.3727    -1.8835 H            1    LIG   0.0000
  50 H            2.1802    -1.8189    -1.6030 H            1    LIG   0.0000
  51 H            1.7072     0.4771    -1.1043 H            1    LIG   0.0000
  52 H           -3.3158     2.8346     1.2147 H            1    LIG   0.0000
  53 H           -5.2979     2.9095     2.5515 H            1    LIG   0.0000
  54 H           -5.9335     1.0286     3.8833 H            1    LIG   0.0000
  55 H           -2.5842    -1.0313     2.5475 H            1    LIG   0.0000
  56 H            2.9255     2.6113     3.0513 H            1    LIG   0.0000
  57 H            1.7164     3.3211     2.2140 H            1    LIG   0.0000
  58 H            3.2175     4.9771     1.4266 H            1    LIG   0.0000
  59 H            3.2246     4.9617     3.0595 H            1    LIG   0.0000
@<TRIPOS>BOND
   1        1        2 am
   2        2        3 2
   3        2        4 am
   4        4        5 1
   5        5        6 1
   6        6        7 1
   7        7        8 1
   8        8        9 1
   9        9       10 2
  10        9       11 1
  11       11       12 1
  12       12       13 2
  13       13       14 1
  14       13       15 1
  15       15       16 1
  16       16       17 2
  17       17       18 1
  18       18       19 ar
  19       19       20 ar
  20       20       21 ar
  21       21       22 ar
  22       22       23 ar
  23       23       18 ar
  24       15       24 1
  25       24       25 ar
  26       25       26 ar
  27       26       27 ar
  28       27       28 ar
  29       28       29 1
  30       29       30 1
  31       29       31 1
  32       29       32 1
  33       28       33 ar
  34       33       24 ar
  35        8       34 1
  36       34       35 1
  37       35        5 1
  38        5       36 1
  39        8       37 1
  40        1       38 1
  41        1       39 1
  42        4       40 1
  43        6       41 1
  44        6       42 1
  45        7       43 1
  46        7       44 1
  47       12       45 1
  48       17       46 1
  49       19       47 1
  50       20       48 1
  51       21       49 1
  52       22       50 1
  53       23       51 1
  54       25       52 1
  55       26       53 1
  56       27       54 1
  57       33       55 1
  58       34       56 1
  59       34       57 1
  60       35       58 1
  61       35       59 1

@<TRIPOS>MOLECULE

  59   61
SMALL
USER_CHARGES
@<TRIPOS>ATOM
   1 N1           7.2387     6.9191     3.2794 N.am         1    LIG   0.0000
   2 C2           6.5482     5.7358     3.2717 C.2          1    LIG   0.0000
   3 O3           6.6868     4.9544     4.1718 O.2          1    LIG   0.0000
   4 N4           5.6996     5.4447     2.2364 N.am         1    LIG   0.0000
   5 C5           4.9589     4.1754     2.2281 C.3          1    LIG   0.0000
   6 C6           5.3411     3.3587     1.0043 C.3          1    LIG   0.0000
   7 C7           4.5668     2.0504     1.0000 C.3          1    LIG   0.0000
   8 C8           3.0700     2.3163     1.0000 C.3          1    LIG   0.0000
   9 C9           2.3100     1.0000     1.0000 C.2          1    LIG   0.0000
  10 O10          2.9100    -0.0392     1.0000 O.2          1    LIG   0.0000
  11 O11          1.0000     1.0000     1.0000 O.3          1    LIG   0.0000
  12 C12          0.4360    -0.1824     1.0000 C.2          1    LIG   0.0000
  13 C13         -0.8600    -0.2844     1.0000 C.2          1    LIG   0.0000
  14 O14         -1.4713    -1.5661     1.0000 O.3          1    LIG  -1.0000
  15 N15         -1.6359     0.8447     1.0000 N.pl3        1    LIG   0.0000
  16 N16         -2.7730     0.8944     0.2374 N.2          1    LIG   0.0000
  17 C17         -2.7195     0.2004    -0.8009 C.2          1    LIG   0.0000
  18 C18         -1.5236    -0.5626    -1.1023 C.ar         1    LIG   0.0000
  19 C19         -0.3094     0.0964    -1.2645 C.ar         1    LIG   0.0000
  20 C20          0.8324    -0.6432    -1.5542 C.ar         1    LIG   0.0000
  21 C21          0.7528    -2.0269    -1.6784 C.ar         1    LIG   0.0000
  22 C22         -0.4656    -2.6777    -1.5144 C.ar         1    LIG   0.0000
  23 C23         -1.6127    -1.9454    -1.2251 C.ar         1    LIG   0.0000
  24 C24         -1.2670     1.9476     1.7793 C.ar         1    LIG   0.0000
  25 C25         -1.7843     3.2035     1.4786 C.ar         1    LIG   0.0000
  26 C26         -1.4105     4.2920     2.2595 C.ar         1    LIG   0.0000
  27 C27         -0.5337     4.1351     3.3277 C.ar         1    LIG   0.0000
  28 C28         -0.0287     2.8702     3.6105 C.ar         1    LIG   0.0000
  29 C29          0.9306     2.6885     4.7754 C.3          1    LIG   0.0000
  30 F30          1.9143     3.5788     4.6827 F            1    LIG   0.0000
  31 F31          0.2771     2.8673     5.9199 F            1    LIG   0.0000
  32 F32          1.4398     1.4602     4.7429 F            1    LIG   0.0000
  33 C33         -0.3886     1.7679     2.8425 C.ar         1    LIG   0.0000
  34 C34          2.6982     3.1316     2.2281 C.3          1    LIG   0.0000
  35 C35          3.4630     4.4453     2.2371 C.3          1    LIG   0.0000
  36 H            5.1980     3.6571     3.0492 H            1    LIG   0.0000
  37 H            2.8293     2.8333     0.1786 H            1    LIG   0.0000
  38 H            7.1232     7.5703     2.5293 H            1    LIG   0.0000
  39 H            7.8582     7.1316     4.0351 H            1    LIG   0.0000
  40 H            5.5841     6.0959     1.4863 H            1    LIG   0.0000
  41 H            6.3218     3.1646     1.0271 H            1    LIG   0.0000
  42 H            5.1230     3.8769     0.1773 H            1    LIG   0.0000
  43 H            4.8081     1.5281     0.1821 H            1    LIG   0.0000
  44 H            4.8072     1.5233     1.8151 H            1    LIG   0.0000
  45 H            1.0024    -1.0065     1.0000 H            1    LIG   0.0000
  46 H           -3.5014     0.1712    -1.4236 H            1    LIG   0.0000
  47 H           -0.2580     1.0909    -1.1738 H            1    LIG   0.0000
  48 H            1.7108    -0.1804    -1.6731 H            1    LIG   0.0000
  49 H            1.5754    -2.5560    -1.8867 H            1    LIG   0.0000
  50 H           -0.5171    -3.6724    -1.6043 H            1    LIG   0.0000
  51 H           -2.4914    -2.4079    -1.1069 H            1    LIG   0.0000
  52 H           -2.4156     3.3220     0.7121 H            1    LIG   0.0000
  53 H           -1.7767     5.1987     2.0503 H            1    LIG   0.0000
  54 H           -0.2696     4.9219     3.8855 H            1    LIG   0.0000
  55 H           -0.0220     0.8613     3.0514 H            1    LIG   0.0000
  56 H            2.9255     2.6113     3.0513 H            1    LIG   0.0000
  57 H            1.7164     3.3211     2.2140 H            1    LIG   0.0000
  58 H            3.2175     4.9771     1.4266 H            1    LIG   0.0000
  59 H            3.2246     4.9617     3.0595 H            1    LIG   0.0000
@<TRIPOS>BOND
   1        1        2 am
   2        2        3 2
   3        2        4 am
   4        4        5 1
   5        5        6 1
   6        6        7 1
   7        7        8 1
   8        8        9 1
   9        9       10 2
  10        9       11 1
  11       11       12 1
  12       12       13 2
  13       13       14 1
  14       13       15 1
  15       15       16 1
  16       16       17 2
  17       17       18 1
  18       18       19 ar
  19       19       20 ar
  20       20       21 ar
  21       21       22 ar
  22       22       23 ar
  23       23       18 ar
  24       15       24 1
  25       24       25 ar
  26       25       26 ar
  27       26       27 ar
  28       27       28 ar
  29       28       29 1
  30       29       30 1
  31       29       31 1
  32       29       32 1
  33       28       33 ar
  34       33       24 ar
  35        8       34 1
  36       34       35 1
  37       35        5 1
  38        5       36 1
  39        8       37 1
  40        1       38 1
  41        1       39 1
  42        4       40 1
  43        6       41 1
  44        6       42 1
  45        7       43 1
  46        7       44 1
  47       12       45 1
  48       17       46 1
  49       19       47 1
  50       20       48 1
  51       21       49 1
  52       22       50 1
  53       23       51 1
  54       25       52 1
  55       26       53 1
  56       27       54 1
  57       33       55 1
  58       34       56 1
  59       34       57 1
  60       35       58 1
  61       35       59 1

@<TRIPOS>MOLECULE

  59   61
SMALL
USER_CHARGES
@<TRIPOS>ATOM
   1 N1           7.2387     6.9191     3.2794 N.am         1    LIG   0.0000
   2 C2           6.5482     5.7358     3.2717 C.2          1    LIG   0.0000
   3 O3           6.6868     4.9544     4.1718 O.2          1    LIG   0.0000
   4 N4           5.6996     5.4447     2.2364 N.am         1    LIG   0.0000
   5 C5           4.9589     4.1754     2.2281 C.3          1    LIG   0.0000
   6 C6           5.3411     3.3587     1.0043 C.3          1    LIG   0.0000
   7 C7           4.5668     2.0504     1.0000 C.3          1    LIG   0.0000
   8 C8           3.0700     2.3163     1.0000 C.3          1    LIG   0.0000
   9 C9           2.3100     1.0000     1.0000 C.2          1    LIG   0.0000
  10 O10          2.9100    -0.0392     1.0000 O.2          1    LIG   0.0000
  11 O11          1.0000     1.0000     1.0000 O.3          1    LIG   0.0000
  12 C12          0.4360    -0.1824     1.0000 C.2          1    LIG   0.0000
  13 C13         -0.8600    -0.2844     1.0000 C.2          1    LIG   0.0000
  14 O14         -1.4713    -1.5661     1.0000 O.3          1    LIG  -1.0000
  15 N15         -1.6359     0.8447     1.0000 N.pl3        1    LIG   0.0000
  16 N16         -2.7730     0.8944     0.2374 N.2          1    LIG   0.0000
  17 C17         -2.7195     0.2004    -0.8009 C.2          1    LIG   0.0000
  18 C18         -1.5236    -0.5626    -1.1023 C.ar         1    LIG   0.0000
  19 C19         -0.3094     0.0964    -1.2645 C.ar         1    LIG   0.0000
  20 C20          0.8324    -0.6432    -1.5542 C.ar         1    LIG   0.0000
  21 C21          0.7528    -2.0269    -1.6784 C.ar         1    LIG   0.0000
  22 C22         -0.4656    -2.6777    -1.5144 C.ar         1    LIG   0.0000
  23 C23         -1.6127    -1.9454    -1.2251 C.ar         1    LIG   0.0000
  24 C24         -1.2670     1.9476     1.7793 C.ar         1    LIG   0.0000
  25 C25         -0.3883     1.7721     2.8435 C.ar         1    LIG   0.0000
  26 C26         -0.0291     2.8750     3.6110 C.ar         1    LIG   0.0000
  27 C27         -0.5358     4.1381     3.3244 C.ar         1    LIG   0.0000
  28 C28         -1.4129     4.2906     2.2556 C.ar         1    LIG   0.0000
  29 C29         -1.9727     5.6669     1.9347 C.3          1    LIG   0.0000
  30 F30         -3.3011     5.6093     1.9049 F            1    LIG   0.0000
  31 F31         -1.5872     6.5312     2.8692 F            1    LIG   0.0000
  32 F32         -1.5195     6.0644     0.7492 F            1    LIG   0.0000
  33 C33         -1.7860     3.2015     1.4751 C.ar         1    LIG   0.0000
  34 C34          2.6982     3.1316     2.2281 C.3          1    LIG   0.0000
  35 C35          3.4630     4.4453     2.2371 C.3          1    LIG   0.0000
  36 H            5.1980     3.6571     3.0492 H            1    LIG   0.0000
  37 H            2.8293     2.8333     0.1786 H            1    LIG   0.0000
  38 H            7.1232     7.5703     2.5293 H            1    LIG   0.0000
  39 H            7.8582     7.1316     4.0351 H            1    LIG   0.0000
  40 H            5.5841     6.0959     1.4863 H            1    LIG   0.0000
  41 H            6.3218     3.1646     1.0271 H            1    LIG   0.0000
  42 H            5.1230     3.8769     0.1773 H            1    LIG   0.0000
  43 H            4.8081     1.5281     0.1821 H            1    LIG   0.0000
  44 H            4.8072     1.5233     1.8151 H            1    LIG   0.0000
  45 H            1.0024    -1.0065     1.0000 H            1    LIG   0.0000
  46 H           -3.5014     0.1712    -1.4236 H            1    LIG   0.0000
  47 H           -0.2580     1.0909    -1.1738 H            1    LIG   0.0000
  48 H            1.7108    -0.1804    -1.6731 H            1    LIG   0.0000
  49 H            1.5754    -2.5560    -1.8867 H            1    LIG   0.0000
  50 H           -0.5171    -3.6724    -1.6043 H            1    LIG   0.0000
  51 H           -2.4914    -2.4079    -1.1069 H            1    LIG   0.0000
  52 H           -0.0203     0.8663     3.0536 H            1    LIG   0.0000
  53 H            0.6014     2.7583     4.3784 H            1    LIG   0.0000
  54 H           -0.2728     4.9269     3.8799 H            1    LIG   0.0000
  55 H           -2.4169     3.3181     0.7081 H            1    LIG   0.0000
  56 H            2.9255     2.6113     3.0513 H            1    LIG   0.0000
  57 H            1.7164     3.3211     2.2140 H            1    LIG   0.0000
  58 H            3.2175     4.9771     1.4266 H            1    LIG   0.0000
  59 H            3.2246     4.9617     3.0595 H            1    LIG   0.0000
@<TRIPOS>BOND
   1        1        2 am
   2        2        3 2
   3        2        4 am
   4        4        5 1
   5        5        6 1
   6        6        7 1
   7        7        8 1
   8        8        9 1
   9        9       10 2
  10        9       11 1
  11       11       12 1
  12       12       13 2
  13       13       14 1
  14       13       15 1
  15       15       16 1
  16       16       17 2
  17       17       18 1
  18       18       19 ar
  19       19       20 ar
  20       20       21 ar
  21       21       22 ar
  22       22       23 ar
  23       23       18 ar
  24       15       24 1
  25       24       25 ar
  26       25       26 ar
  27       26       27 ar
  28       27       28 ar
  29       28       29 1
  30       29       30 1
  31       29       31 1
  32       29       32 1
  33       28       33 ar
  34       33       24 ar
  35        8       34 1
  36       34       35 1
  37       35        5 1
  38        5       36 1
  39        8       37 1
  40        1       38 1
  41        1       39 1
  42        4       40 1
  43        6       41 1
  44        6       42 1
  45        7       43 1
  46        7       44 1
  47       12       45 1
  48       17       46 1
  49       19       47 1
  50       20       48 1
  51       21       49 1
  52       22       50 1
  53       23       51 1
  54       25       52 1
  55       26       53 1
  56       27       54 1
  57       33       55 1
  58       34       56 1
  59       34       57 1
  60       35       58 1
  61       35       59 1

@<TRIPOS>MOLECULE

  59   61
SMALL
USER_CHARGES
@<TRIPOS>ATOM
   1 N1           7.2387     6.9191     3.2794 N.am         1    LIG   0.0000
   2 C2           6.5482     5.7358     3.2717 C.2          1    LIG   0.0000
   3 O3           6.6868     4.9544     4.1718 O.2          1    LIG   0.0000
   4 N4           5.6996     5.4447     2.2364 N.am         1    LIG   0.0000
   5 C5           4.9589     4.1754     2.2281 C.3          1    LIG   0.0000
   6 C6           5.3411     3.3587     1.0043 C.3          1    LIG   0.0000
   7 C7           4.5668     2.0504     1.0000 C.3          1    LIG   0.0000
   8 C8           3.0700     2.3163     1.0000 C.3          1    LIG   0.0000
   9 C9           2.3100     1.0000     1.0000 C.2          1    LIG   0.0000
  10 O10          2.9100    -0.0392     1.0000 O.2          1    LIG   0.0000
  11 O11          1.0000     1.0000     1.0000 O.3          1    LIG   0.0000
  12 C12          0.4360    -0.1824     1.0000 C.2          1    LIG   0.0000
  13 C13         -0.8600    -0.2844     1.0000 C.2          1    LIG   0.0000
  14 O14         -1.6643     0.8859     1.0000 O.3          1    LIG  -1.0000
  15 N15         -1.4498    -1.5209     1.0000 N.pl3        1    LIG   0.0000
  16 N16         -0.9243    -2.5305     0.2374 N.2          1    LIG   0.0000
  17 C17         -0.3500    -2.1372    -0.8009 C.2          1    LIG   0.0000
  18 C18         -0.2872    -0.7200    -1.1023 C.ar         1    LIG   0.0000
  19 C19         -1.4650     0.0020    -1.2645 C.ar         1    LIG   0.0000
  20 C20         -1.3954     1.3607    -1.5542 C.ar         1    LIG   0.0000
  21 C21         -0.1572     1.9836    -1.6784 C.ar         1    LIG   0.0000
  22 C22          1.0156     1.2538    -1.5144 C.ar         1    LIG   0.0000
  23 C23          0.9549    -0.1057    -1.2251 C.ar         1    LIG   0.0000
  24 C24         -2.5894    -1.7529     1.7793 C.ar         1    LIG   0.0000
  25 C25         -2.4453    -2.2011     3.0885 C.ar         1    LIG   0.0000
  26 C26         -3.5846    -2.4284     3.8531 C.ar         1    LIG   0.0000
  27 C27         -4.8526    -2.2122     3.3243 C.ar         1    LIG   0.0000
  28 C28         -4.9733    -1.7638     2.0131 C.ar         1    LIG   0.0000
  29 C29         -6.3548    -1.5251     1.4258 C.3          1    LIG   0.0000
  30 F30         -7.0713    -2.6424     1.5096 F            1    LIG   0.0000
  31 F31         -6.9634    -0.5562     2.1039 F            1    LIG   0.0000
  32 F32         -6.2385    -1.1676     0.1500 F            1    LIG   0.0000
  33 C33         -3.8477    -1.5304     1.2302 C.ar         1    LIG   0.0000
  34 C34          2.6982     3.1316     2.2281 C.3          1    LIG   0.0000
  35 C35          3.4630     4.4453     2.2371 C.3          1    LIG   0.0000
  36 H            5.1980     3.6571     3.0492 H            1    LIG   0.0000
  37 H            2.8293     2.8333     0.1786 H            1    LIG   0.0000
  38 H            7.1232     7.5703     2.5293 H            1    LIG   0.0000
  39 H            7.8582     7.1316     4.0351 H            1    LIG   0.0000
  40 H            5.5841     6.0959     1.4863 H            1    LIG   0.0000
  41 H            6.3218     3.1646     1.0271 H            1    LIG   0.0000
  42 H            5.1230     3.8769     0.1773 H            1    LIG   0.0000
  43 H            4.8081     1.5281     0.1821 H            1    LIG   0.0000
  44 H            4.8072     1.5233     1.8151 H            1    LIG   0.0000
  45 H            1.0024    -1.0065     1.0000 H            1    LIG   0.0000
  46 H            0.0662    -2.7998    -1.4236 H            1    LIG   0.0000
  47 H           -2.3520    -0.4507    -1.1738 H            1    LIG   0.0000
  48 H           -2.2354     1.8900    -1.6731 H            1    LIG   0.0000
  49 H           -0.1104     2.9605    -1.8867 H            1    LIG   0.0000
  50 H            1.9027     1.7065    -1.6043 H            1    LIG   0.0000
  51 H            1.7948    -0.6355    -1.1069 H            1    LIG   0.0000
  52 H           -1.5359    -2.3575     3.4740 H            1    LIG   0.0000
  53 H           -3.4908    -2.7514     4.7949 H            1    LIG   0.0000
  54 H           -5.6676    -2.3770     3.8799 H            1    LIG   0.0000
  55 H           -3.9415    -1.2080     0.2883 H            1    LIG   0.0000
  56 H            2.9255     2.6113     3.0513 H            1    LIG   0.0000
  57 H            1.7164     3.3211     2.2140 H            1    LIG   0.0000
  58 H            3.2175     4.9771     1.4266 H            1    LIG   0.0000
  59 H            3.2246     4.9617     3.0595 H            1    LIG   0.0000
@<TRIPOS>BOND
   1        1        2 am
   2        2        3 2
   3        2        4 am
   4        4        5 1
   5        5        6 1
   6        6        7 1
   7        7        8 1
   8        8        9 1
   9        9       10 2
  10        9       11 1
  11       11       12 1
  12       12       13 2
  13       13       14 1
  14       13       15 1
  15       15       16 1
  16       16       17 2
  17       17       18 1
  18       18       19 ar
  19       19       20 ar
  20       20       21 ar
  21       21       22 ar
  22       22       23 ar
  23       23       18 ar
  24       15       24 1
  25       24       25 ar
  26       25       26 ar
  27       26       27 ar
  28       27       28 ar
  29       28       29 1
  30       29       30 1
  31       29       31 1
  32       29       32 1
  33       28       33 ar
  34       33       24 ar
  35        8       34 1
  36       34       35 1
  37       35        5 1
  38        5       36 1
  39        8       37 1
  40        1       38 1
  41        1       39 1
  42        4       40 1
  43        6       41 1
  44        6       42 1
  45        7       43 1
  46        7       44 1
  47       12       45 1
  48       17       46 1
  49       19       47 1
  50       20       48 1
  51       21       49 1
  52       22       50 1
  53       23       51 1
  54       25       52 1
  55       26       53 1
  56       27       54 1
  57       33       55 1
  58       34       56 1
  59       34       57 1
  60       35       58 1
  61       35       59 1

@<TRIPOS>MOLECULE

  59   61
SMALL
USER_CHARGES
@<TRIPOS>ATOM
   1 N1           7.2387     6.9191     3.2794 N.am         1    LIG   0.0000
   2 C2           6.5482     5.7358     3.2717 C.2          1    LIG   0.0000
   3 O3           6.6868     4.9544     4.1718 O.2          1    LIG   0.0000
   4 N4           5.6996     5.4447     2.2364 N.am         1    LIG   0.0000
   5 C5           4.9589     4.1754     2.2281 C.3          1    LIG   0.0000
   6 C6           5.3411     3.3587     1.0043 C.3          1    LIG   0.0000
   7 C7           4.5668     2.0504     1.0000 C.3          1    LIG   0.0000
   8 C8           3.0700     2.3163     1.0000 C.3          1    LIG   0.0000
   9 C9           2.3100     1.0000     1.0000 C.2          1    LIG   0.0000
  10 O10          2.9100    -0.0392     1.0000 O.2          1    LIG   0.0000
  11 O11          1.0000     1.0000     1.0000 O.3          1    LIG   0.0000
  12 C12          0.4360    -0.1824     1.0000 C.2          1    LIG   0.0000
  13 C13         -0.7238    -0.3493     0.4371 C.2          1    LIG   0.0000
  14 O14         -1.3351    -1.6310     0.4371 O.3          1    LIG  -1.0000
  15 N15         -1.3563     0.7113    -0.1561 N.pl3        1    LIG   0.0000
  16 N16         -1.3227     1.9468     0.4349 N.2          1    LIG   0.0000
  17 C17         -1.2466     1.9118     1.6821 C.2          1    LIG   0.0000
  18 C18         -1.2022     0.6361     2.3704 C.ar         1    LIG   0.0000
  19 C19         -2.2579    -0.2588     2.2300 C.ar         1    LIG   0.0000
  20 C20         -2.2073    -1.4798     2.8943 C.ar         1    LIG   0.0000
  21 C21         -1.1091    -1.7954     3.6885 C.ar         1    LIG   0.0000
  22 C22         -0.0577    -0.8945     3.8230 C.ar         1    LIG   0.0000
  23 C23         -0.1007     0.3292     3.1625 C.ar         1    LIG   0.0000
  24 C24         -2.0371     0.5326    -1.3664 C.ar         1    LIG   0.0000
  25 C25         -1.3577     0.7083    -2.5676 C.ar         1    LIG   0.0000
  26 C26         -2.0443     0.5284    -3.7637 C.ar         1    LIG   0.0000
  27 C27         -3.3900     0.1770    -3.7670 C.ar         1    LIG   0.0000
  28 C28         -4.0495     0.0065    -2.5542 C.ar         1    LIG   0.0000
  29 C29         -5.5203    -0.3769    -2.5473 C.3          1    LIG   0.0000
  30 F30         -5.6731    -1.5371    -1.9153 F            1    LIG   0.0000
  31 F31         -6.2209     0.5645    -1.9213 F            1    LIG   0.0000
  32 F32         -5.9540    -0.4935    -3.7992 F            1    LIG   0.0000
  33 C33         -3.3827     0.1817    -1.3463 C.ar         1    LIG   0.0000
  34 C34          2.6982     3.1316     2.2281 C.3          1    LIG   0.0000
  35 C35          3.4630     4.4453     2.2371 C.3          1    LIG   0.0000
  36 H            5.1980     3.6571     3.0492 H            1    LIG   0.0000
  37 H            2.8293     2.8333     0.1786 H            1    LIG   0.0000
  38 H            7.1232     7.5703     2.5293 H            1    LIG   0.0000
  39 H            7.8582     7.1316     4.0351 H            1    LIG   0.0000
  40 H            5.5841     6.0959     1.4863 H            1    LIG   0.0000
  41 H            6.3218     3.1646     1.0271 H            1    LIG   0.0000
  42 H            5.1230     3.8769     0.1773 H            1    LIG   0.0000
  43 H            4.8081     1.5281     0.1821 H            1    LIG   0.0000
  44 H            4.8072     1.5233     1.8151 H            1    LIG   0.0000
  45 H            0.8977    -0.9566     1.4330 H            1    LIG   0.0000
  46 H           -1.2164     2.7635     2.2053 H            1    LIG   0.0000
  47 H           -3.0445    -0.0269     1.6577 H            1    LIG   0.0000
  48 H           -2.9604    -2.1310     2.8011 H            1    LIG   0.0000
  49 H           -1.0756    -2.6740     4.1649 H            1    LIG   0.0000
  50 H            0.7293    -1.1266     4.3947 H            1    LIG   0.0000
  51 H            0.6520     0.9810     3.2562 H            1    LIG   0.0000
  52 H           -0.3900     0.9601    -2.5711 H            1    LIG   0.0000
  53 H           -1.5644     0.6532    -4.6321 H            1    LIG   0.0000
  54 H           -3.8775     0.0486    -4.6307 H            1    LIG   0.0000
  55 H           -3.8627     0.0574    -0.4779 H            1    LIG   0.0000
  56 H            2.9255     2.6113     3.0513 H            1    LIG   0.0000
  57 H            1.7164     3.3211     2.2140 H            1    LIG   0.0000
  58 H            3.2175     4.9771     1.4266 H            1    LIG   0.0000
  59 H            3.2246     4.9617     3.0595 H            1    LIG   0.0000
@<TRIPOS>BOND
   1        1        2 am
   2        2        3 2
   3        2        4 am
   4        4        5 1
   5        5        6 1
   6        6        7 1
   7        7        8 1
   8        8        9 1
   9        9       10 2
  10        9       11 1
  11       11       12 1
  12       12       13 2
  13       13       14 1
  14       13       15 1
  15       15       16 1
  16       16       17 2
  17       17       18 1
  18       18       19 ar
  19       19       20 ar
  20       20       21 ar
  21       21       22 ar
  22       22       23 ar
  23       23       18 ar
  24       15       24 1
  25       24       25 ar
  26       25       26 ar
  27       26       27 ar
  28       27       28 ar
  29       28       29 1
  30       29       30 1
  31       29       31 1
  32       29       32 1
  33       28       33 ar
  34       33       24 ar
  35        8       34 1
  36       34       35 1
  37       35        5 1
  38        5       36 1
  39        8       37 1
  40        1       38 1
  41        1       39 1
  42        4       40 1
  43        6       41 1
  44        6       42 1
  45        7       43 1
  46        7       44 1
  47       12       45 1
  48       17       46 1
  49       19       47 1
  50       20       48 1
  51       21       49 1
  52       22       50 1
  53       23       51 1
  54       25       52 1
  55       26       53 1
  56       27       54 1
  57       33       55 1
  58       34       56 1
  59       34       57 1
  60       35       58 1
  61       35       59 1

@<TRIPOS>MOLECULE

  59   61
SMALL
USER_CHARGES
@<TRIPOS>ATOM
   1 N1           7.2387     6.9191     3.2794 N.am         1    LIG   0.0000
   2 C2           6.5482     5.7358     3.2717 C.2          1    LIG   0.0000
   3 O3           6.6868     4.9544     4.1718 O.2          1    LIG   0.0000
   4 N4           5.6996     5.4447     2.2364 N.am         1    LIG   0.0000
   5 C5           4.9589     4.1754     2.2281 C.3          1    LIG   0.0000
   6 C6           5.3411     3.3587     1.0043 C.3          1    LIG   0.0000
   7 C7           4.5668     2.0504     1.0000 C.3          1    LIG   0.0000
   8 C8           3.0700     2.3163     1.0000 C.3          1    LIG   0.0000
   9 C9           2.3100     1.0000     1.0000 C.2          1    LIG   0.0000
  10 O10          2.9100    -0.0392     1.0000 O.2          1    LIG   0.0000
  11 O11          1.0000     1.0000     1.0000 O.3          1    LIG   0.0000
  12 C12          0.4360    -0.1824     1.0000 C.2          1    LIG   0.0000
  13 C13         -0.7238    -0.3493     0.4371 C.2          1    LIG   0.0000
  14 O14         -1.3794     0.7500    -0.1778 O.3          1    LIG  -1.0000
  15 N15         -1.3136    -1.5859     0.4371 N.pl3        1    LIG   0.0000
  16 N16         -1.9748    -2.0294    -0.6778 N.2          1    LIG   0.0000
  17 C17         -1.5198    -1.5792    -1.7515 C.2          1    LIG   0.0000
  18 C18         -0.3889    -0.6715    -1.7358 C.ar         1    LIG   0.0000
  19 C19          0.8205    -1.0881    -1.1893 C.ar         1    LIG   0.0000
  20 C20          1.8997    -0.2107    -1.1778 C.ar         1    LIG   0.0000
  21 C21          1.7632     1.0680    -1.7094 C.ar         1    LIG   0.0000
  22 C22          0.5501     1.4762    -2.2542 C.ar         1    LIG   0.0000
  23 C23         -0.5346     0.6050    -2.2691 C.ar         1    LIG   0.0000
  24 C24         -1.2407    -2.3962     1.5764 C.ar         1    LIG   0.0000
  25 C25         -0.5672    -1.9358     2.7033 C.ar         1    LIG   0.0000
  26 C26         -0.5009    -2.7496     3.8292 C.ar         1    LIG   0.0000
  27 C27         -1.0976    -4.0059     3.8365 C.ar         1    LIG   0.0000
  28 C28         -1.7660    -4.4460     2.6988 C.ar         1    LIG   0.0000
  29 C29         -2.4208    -5.8178     2.6967 C.3          1    LIG   0.0000
  30 F30         -1.6322    -6.6865     3.3230 F            1    LIG   0.0000
  31 F31         -3.5922    -5.7508     3.3230 F            1    LIG   0.0000
  32 F32         -2.6111    -6.2163     1.4421 F            1    LIG   0.0000
  33 C33         -1.8443    -3.6491     1.5616 C.ar         1    LIG   0.0000
  34 C34          2.6982     3.1316     2.2281 C.3          1    LIG   0.0000
  35 C35          3.4630     4.4453     2.2371 C.3          1    LIG   0.0000
  36 H            5.1980     3.6571     3.0492 H            1    LIG   0.0000
  37 H            2.8293     2.8333     0.1786 H            1    LIG   0.0000
  38 H            7.1232     7.5703     2.5293 H            1    LIG   0.0000
  39 H            7.8582     7.1316     4.0351 H            1    LIG   0.0000
  40 H            5.5841     6.0959     1.4863 H            1    LIG   0.0000
  41 H            6.3218     3.1646     1.0271 H            1    LIG   0.0000
  42 H            5.1230     3.8769     0.1773 H            1    LIG   0.0000
  43 H            4.8081     1.5281     0.1821 H            1    LIG   0.0000
  44 H            4.8072     1.5233     1.8151 H            1    LIG   0.0000
  45 H            0.8977    -0.9566     1.4330 H            1    LIG   0.0000
  46 H           -1.9357    -1.8449    -2.6213 H            1    LIG   0.0000
  47 H            0.9130    -2.0083    -0.8089 H            1    LIG   0.0000
  48 H            2.7741    -0.4990    -0.7874 H            1    LIG   0.0000
  49 H            2.5409     1.6966    -1.6998 H            1    LIG   0.0000
  50 H            0.4576     2.3961    -2.6353 H            1    LIG   0.0000
  51 H           -1.4092     0.8933    -2.6588 H            1    LIG   0.0000
  52 H           -0.1370    -1.0331     2.7037 H            1    LIG   0.0000
  53 H           -0.0183    -2.4275     4.6436 H            1    LIG   0.0000
  54 H           -1.0467    -4.5857     4.6498 H            1    LIG   0.0000
  55 H           -2.3264    -3.9715     0.7470 H            1    LIG   0.0000
  56 H            2.9255     2.6113     3.0513 H            1    LIG   0.0000
  57 H            1.7164     3.3211     2.2140 H            1    LIG   0.0000
  58 H            3.2175     4.9771     1.4266 H            1    LIG   0.0000
  59 H            3.2246     4.9617     3.0595 H            1    LIG   0.0000
@<TRIPOS>BOND
   1        1        2 am
   2        2        3 2
   3        2        4 am
   4        4        5 1
   5        5        6 1
   6        6        7 1
   7        7        8 1
   8        8        9 1
   9        9       10 2
  10        9       11 1
  11       11       12 1
  12       12       13 2
  13       13       14 1
  14       13       15 1
  15       15       16 1
  16       16       17 2
  17       17       18 1
  18       18       19 ar
  19       19       20 ar
  20       20       21 ar
  21       21       22 ar
  22       22       23 ar
  23       23       18 ar
  24       15       24 1
  25       24       25 ar
  26       25       26 ar
  27       26       27 ar
  28       27       28 ar
  29       28       29 1
  30       29       30 1
  31       29       31 1
  32       29       32 1
  33       28       33 ar
  34       33       24 ar
  35        8       34 1
  36       34       35 1
  37       35        5 1
  38        5       36 1
  39        8       37 1
  40        1       38 1
  41        1       39 1
  42        4       40 1
  43        6       41 1
  44        6       42 1
  45        7       43 1
  46        7       44 1
  47       12       45 1
  48       17       46 1
  49       19       47 1
  50       20       48 1
  51       21       49 1
  52       22       50 1
  53       23       51 1
  54       25       52 1
  55       26       53 1
  56       27       54 1
  57       33       55 1
  58       34       56 1
  59       34       57 1
  60       35       58 1
  61       35       59 1

@<TRIPOS>MOLECULE

  59   61
SMALL
USER_CHARGES
@<TRIPOS>ATOM
   1 N1           6.9174     7.0333     3.5107 N.am         1    LIG   0.0000
   2 C2           6.5482     5.7358     3.2717 C.2          1    LIG   0.0000
   3 O3           6.9683     4.8543     3.9692 O.2          1    LIG   0.0000
   4 N4           5.6996     5.4447     2.2364 N.am         1    LIG   0.0000
   5 C5           4.9589     4.1754     2.2281 C.3          1    LIG   0.0000
   6 C6           5.3411     3.3587     1.0043 C.3          1    LIG   0.0000
   7 C7           4.5668     2.0504     1.0000 C.3          1    LIG   0.0000
   8 C8           3.0700     2.3163     1.0000 C.3          1    LIG   0.0000
   9 C9           2.3100     1.0000     1.0000 C.2          1    LIG   0.0000
  10 O10          2.9100    -0.0392     1.0000 O.2          1    LIG   0.0000
  11 O11          1.0000     1.0000     1.0000 O.3          1    LIG   0.0000
  12 C12          0.4360    -0.1824     1.0000 C.2          1    LIG   0.0000
  13 C13         -0.7238    -0.3493     1.5629 C.2          1    LIG   0.0000
  14 O14         -1.3351    -1.6310     1.5629 O.3          1    LIG  -1.0000
  15 N15         -1.3563     0.7113     2.1561 N.pl3        1    LIG   0.0000
  16 N16         -2.0225     0.5364     3.3404 N.2          1    LIG   0.0000
  17 C17         -1.5425    -0.3611     4.0661 C.2          1    LIG   0.0000
  18 C18         -0.3808    -1.1077     3.6232 C.ar         1    LIG   0.0000
  19 C19          0.8084    -0.4368     3.3575 C.ar         1    LIG   0.0000
  20 C20          1.9174    -1.1607     2.9325 C.ar         1    LIG   0.0000
  21 C21          1.8303    -2.5409     2.7774 C.ar         1    LIG   0.0000
  22 C22          0.6371    -3.2037     3.0457 C.ar         1    LIG   0.0000
  23 C23         -0.4771    -2.4871     3.4706 C.ar         1    LIG   0.0000
  24 C24         -1.3219     1.9739     1.5521 C.ar         1    LIG   0.0000
  25 C25         -1.0293     2.0774     0.1960 C.ar         1    LIG   0.0000
  26 C26         -0.9977     3.3368    -0.3932 C.ar         1    LIG   0.0000
  27 C27         -1.2547     4.4805     0.3554 C.ar         1    LIG   0.0000
  28 C28         -1.5452     4.3535     1.7098 C.ar         1    LIG   0.0000
  29 C29         -1.8269     5.5975     2.5367 C.3          1    LIG   0.0000
  30 F30         -1.3298     5.4386     3.7600 F            1    LIG   0.0000
  31 F31         -1.2569     6.6517     1.9599 F            1    LIG   0.0000
  32 F32         -3.1406     5.7905     2.6136 F            1    LIG   0.0000
  33 C33         -1.5818     3.1041     2.3197 C.ar         1    LIG   0.0000
  34 C34          2.6982     3.1316     2.2281 C.3          1    LIG   0.0000
  35 C35          3.4630     4.4453     2.2371 C.3          1    LIG   0.0000
  36 H            5.1980     3.6571     3.0492 H            1    LIG   0.0000
  37 H            2.8293     2.8333     0.1786 H            1    LIG   0.0000
  38 H            6.5673     7.7679     2.9294 H            1    LIG   0.0000
  39 H            7.5368     7.2458     4.2664 H            1    LIG   0.0000
  40 H            5.5841     6.0959     1.4863 H            1    LIG   0.0000
  41 H            6.3218     3.1646     1.0271 H            1    LIG   0.0000
  42 H            5.1230     3.8769     0.1773 H            1    LIG   0.0000
  43 H            4.8081     1.5281     0.1821 H            1    LIG   0.0000
  44 H            4.8072     1.5233     1.8151 H            1    LIG   0.0000
  45 H            0.8977    -0.9566     0.5670 H            1    LIG   0.0000
  46 H           -1.9595    -0.5642     4.9520 H            1    LIG   0.0000
  47 H            0.8654     0.5551     3.4709 H            1    LIG   0.0000
  48 H            2.7776    -0.6893     2.7383 H            1    LIG   0.0000
  49 H            2.6293    -3.0587     2.4717 H            1    LIG   0.0000
  50 H            0.5801    -4.1957     2.9330 H            1    LIG   0.0000
  51 H           -1.3376    -2.9582     3.6642 H            1    LIG   0.0000
  52 H           -0.8445     1.2584    -0.3471 H            1    LIG   0.0000
  53 H           -0.7875     3.4211    -1.3672 H            1    LIG   0.0000
  54 H           -1.2309     5.3829    -0.0748 H            1    LIG   0.0000
  55 H           -1.7914     3.0199     3.2939 H            1    LIG   0.0000
  56 H            2.9255     2.6113     3.0513 H            1    LIG   0.0000
  57 H            1.7164     3.3211     2.2140 H            1    LIG   0.0000
  58 H            3.2175     4.9771     1.4266 H            1    LIG   0.0000
  59 H            3.2246     4.9617     3.0595 H            1    LIG   0.0000
@<TRIPOS>BOND
   1        1        2 am
   2        2        3 2
   3        2        4 am
   4        4        5 1
   5        5        6 1
   6        6        7 1
   7        7        8 1
   8        8        9 1
   9        9       10 2
  10        9       11 1
  11       11       12 1
  12       12       13 2
  13       13       14 1
  14       13       15 1
  15       15       16 1
  16       16       17 2
  17       17       18 1
  18       18       19 ar
  19       19       20 ar
  20       20       21 ar
  21       21       22 ar
  22       22       23 ar
  23       23       18 ar
  24       15       24 1
  25       24       25 ar
  26       25       26 ar
  27       26       27 ar
  28       27       28 ar
  29       28       29 1
  30       29       30 1
  31       29       31 1
  32       29       32 1
  33       28       33 ar
  34       33       24 ar
  35        8       34 1
  36       34       35 1
  37       35        5 1
  38        5       36 1
  39        8       37 1
  40        1       38 1
  41        1       39 1
  42        4       40 1
  43        6       41 1
  44        6       42 1
  45        7       43 1
  46        7       44 1
  47       12       45 1
  48       17       46 1
  49       19       47 1
  50       20       48 1
  51       21       49 1
  52       22       50 1
  53       23       51 1
  54       25       52 1
  55       26       53 1
  56       27       54 1
  57       33       55 1
  58       34       56 1
  59       34       57 1
  60       35       58 1
  61       35       59 1

@<TRIPOS>MOLECULE

  59   61
SMALL
USER_CHARGES
@<TRIPOS>ATOM
   1 N1           7.5279     6.6797     3.1096 N.am         1    LIG   0.0000
   2 C2           6.5482     5.7358     3.2717 C.2          1    LIG   0.0000
   3 O3           6.4335     5.1641     4.3205 O.2          1    LIG   0.0000
   4 N4           5.6996     5.4447     2.2364 N.am         1    LIG   0.0000
   5 C5           4.9589     4.1754     2.2281 C.3          1    LIG   0.0000
   6 C6           5.3411     3.3587     1.0043 C.3          1    LIG   0.0000
   7 C7           4.5668     2.0504     1.0000 C.3          1    LIG   0.0000
   8 C8           3.0700     2.3163     1.0000 C.3          1    LIG   0.0000
   9 C9           2.3100     1.0000     1.0000 C.2          1    LIG   0.0000
  10 O10          2.9100    -0.0392     1.0000 O.2          1    LIG   0.0000
  11 O11          1.0000     1.0000     1.0000 O.3          1    LIG   0.0000
  12 C12          0.4360    -0.1824     1.0000 C.2          1    LIG   0.0000
  13 C13         -0.3519    -0.5267     0.0250 C.2          1    LIG   0.0000
  14 O14         -0.6012     0.3788    -1.0400 O.3          1    LIG  -1.0000
  15 N15         -0.9417    -1.7633     0.0250 N.pl3        1    LIG   0.0000
  16 N16         -1.4225    -2.2928     1.1934 N.2          1    LIG   0.0000
  17 C17         -1.8173    -1.4373     2.0149 C.2          1    LIG   0.0000
  18 C18         -1.7403    -0.0269     1.6863 C.ar         1    LIG   0.0000
  19 C19         -2.4249     0.4599     0.5775 C.ar         1    LIG   0.0000
  20 C20         -2.3449     1.8138     0.2694 C.ar         1    LIG   0.0000
  21 C21         -1.5866     2.6658     1.0666 C.ar         1    LIG   0.0000
  22 C22         -0.9055     2.1704     2.1738 C.ar         1    LIG   0.0000
  23 C23         -0.9796     0.8173     2.4886 C.ar         1    LIG   0.0000
  24 C24         -1.0530    -2.4857    -1.1690 C.ar         1    LIG   0.0000
  25 C25         -0.5610    -1.9388    -2.3498 C.ar         1    LIG   0.0000
  26 C26         -0.6774    -2.6655    -3.5299 C.ar         1    LIG   0.0000
  27 C27         -1.2747    -3.9215    -3.5374 C.ar         1    LIG   0.0000
  28 C28         -1.7596    -4.4491    -2.3452 C.ar         1    LIG   0.0000
  29 C29         -2.4145    -5.8208    -2.3431 C.3          1    LIG   0.0000
  30 F30         -1.6252    -6.6880    -1.7156 F            1    LIG   0.0000
  31 F31         -3.5851    -5.7522    -1.7155 F            1    LIG   0.0000
  32 F32         -2.6063    -6.2224    -3.5964 F            1    LIG   0.0000
  33 C33         -1.6542    -3.7397    -1.1535 C.ar         1    LIG   0.0000
  34 C34          2.6982     3.1316     2.2281 C.3          1    LIG   0.0000
  35 C35          3.4630     4.4453     2.2371 C.3          1    LIG   0.0000
  36 H            5.1980     3.6571     3.0492 H            1    LIG   0.0000
  37 H            2.8293     2.8333     0.1786 H            1    LIG   0.0000
  38 H            7.6235     7.1561     2.2356 H            1    LIG   0.0000
  39 H            8.1474     6.8922     3.8653 H            1    LIG   0.0000
  40 H            5.5841     6.0959     1.4863 H            1    LIG   0.0000
  41 H            6.3218     3.1646     1.0271 H            1    LIG   0.0000
  42 H            5.1230     3.8769     0.1773 H            1    LIG   0.0000
  43 H            4.8081     1.5281     0.1821 H            1    LIG   0.0000
  44 H            4.8072     1.5233     1.8151 H            1    LIG   0.0000
  45 H            0.6116    -0.8201     1.7500 H            1    LIG   0.0000
  46 H           -2.1862    -1.7254     2.8986 H            1    LIG   0.0000
  47 H           -2.9685    -0.1569     0.0082 H            1    LIG   0.0000
  48 H           -2.8325     2.1752    -0.5254 H            1    LIG   0.0000
  49 H           -1.5310     3.6388     0.8426 H            1    LIG   0.0000
  50 H           -0.3623     2.7871     2.7436 H            1    LIG   0.0000
  51 H           -0.4915     0.4556     3.2829 H            1    LIG   0.0000
  52 H           -0.1300    -1.0364    -2.3500 H            1    LIG   0.0000
  53 H           -0.3273    -2.2801    -4.3837 H            1    LIG   0.0000
  54 H           -1.3545    -4.4389    -4.3895 H            1    LIG   0.0000
  55 H           -2.0048    -4.1249    -0.2999 H            1    LIG   0.0000
  56 H            2.9255     2.6113     3.0513 H            1    LIG   0.0000
  57 H            1.7164     3.3211     2.2140 H            1    LIG   0.0000
  58 H            3.2175     4.9771     1.4266 H            1    LIG   0.0000
  59 H            3.2246     4.9617     3.0595 H            1    LIG   0.0000
@<TRIPOS>BOND
   1        1        2 am
   2        2        3 2
   3        2        4 am
   4        4        5 1
   5        5        6 1
   6        6        7 1
   7        7        8 1
   8        8        9 1
   9        9       10 2
  10        9       11 1
  11       11       12 1
  12       12       13 2
  13       13       14 1
  14       13       15 1
  15       15       16 1
  16       16       17 2
  17       17       18 1
  18       18       19 ar
  19       19       20 ar
  20       20       21 ar
  21       21       22 ar
  22       22       23 ar
  23       23       18 ar
  24       15       24 1
  25       24       25 ar
  26       25       26 ar
  27       26       27 ar
  28       27       28 ar
  29       28       29 1
  30       29       30 1
  31       29       31 1
  32       29       32 1
  33       28       33 ar
  34       33       24 ar
  35        8       34 1
  36       34       35 1
  37       35        5 1
  38        5       36 1
  39        8       37 1
  40        1       38 1
  41        1       39 1
  42        4       40 1
  43        6       41 1
  44        6       42 1
  45        7       43 1
  46        7       44 1
  47       12       45 1
  48       17       46 1
  49       19       47 1
  50       20       48 1
  51       21       49 1
  52       22       50 1
  53       23       51 1
  54       25       52 1
  55       26       53 1
  56       27       54 1
  57       33       55 1
  58       34       56 1
  59       34       57 1
  60       35       58 1
  61       35       59 1

@<TRIPOS>MOLECULE

  59   61
SMALL
USER_CHARGES
@<TRIPOS>ATOM
   1 N1           7.7458     4.3197     2.6582 N.am         1    LIG   0.0000
   2 C2           7.0695     5.4383     2.2482 C.2          1    LIG   0.0000
   3 O3           7.6770     6.4126     1.8995 O.2          1    LIG   0.0000
   4 N4           5.6996     5.4447     2.2364 N.am         1    LIG   0.0000
   5 C5           4.9589     4.1754     2.2281 C.3          1    LIG   0.0000
   6 C6           5.3411     3.3587     1.0043 C.3          1    LIG   0.0000
   7 C7           4.5668     2.0504     1.0000 C.3          1    LIG   0.0000
   8 C8           3.0700     2.3163     1.0000 C.3          1    LIG   0.0000
   9 C9           2.3100     1.0000     1.0000 C.2          1    LIG   0.0000
  10 O10          2.9100    -0.0392     1.0000 O.2          1    LIG   0.0000
  11 O11          1.0000     1.0000     1.0000 O.3          1    LIG   0.0000
  12 C12          0.4360    -0.1824     1.0000 C.2          1    LIG   0.0000
  13 C13          0.6643    -1.0114     0.0250 C.2          1    LIG   0.0000
  14 O14          0.0530    -2.2931     0.0250 O.3          1    LIG  -1.0000
  15 N15          1.4946    -0.6485    -1.0025 N.pl3        1    LIG   0.0000
  16 N16          1.4474     0.6255    -1.5040 N.2          1    LIG   0.0000
  17 C17          0.3222     1.1635    -1.4203 C.2          1    LIG   0.0000
  18 C18         -0.7865     0.4378    -0.8310 C.ar         1    LIG   0.0000
  19 C19         -1.2031    -0.7619    -1.3986 C.ar         1    LIG   0.0000
  20 C20         -2.2678    -1.4509    -0.8273 C.ar         1    LIG   0.0000
  21 C21         -2.9037    -0.9394     0.2998 C.ar         1    LIG   0.0000
  22 C22         -2.4802     0.2610     0.8609 C.ar         1    LIG   0.0000
  23 C23         -1.4165     0.9568     0.2953 C.ar         1    LIG   0.0000
  24 C24          2.3914    -1.5796    -1.5400 C.ar         1    LIG   0.0000
  25 C25          2.4308    -2.8708    -1.0235 C.ar         1    LIG   0.0000
  26 C26          3.3258    -3.7872    -1.5652 C.ar         1    LIG   0.0000
  27 C27          4.1715    -3.4260    -2.6086 C.ar         1    LIG   0.0000
  28 C28          4.1151    -2.1296    -3.1097 C.ar         1    LIG   0.0000
  29 C29          5.0357    -1.7249    -4.2495 C.3          1    LIG   0.0000
  30 F30          6.2849    -2.0745    -3.9559 F            1    LIG   0.0000
  31 F31          4.6545    -2.3383    -5.3663 F            1    LIG   0.0000
  32 F32          4.9732    -0.4078    -4.4235 F            1    LIG   0.0000
  33 C33          3.2281    -1.1968    -2.5828 C.ar         1    LIG   0.0000
  34 C34          2.6982     3.1316     2.2281 C.3          1    LIG   0.0000
  35 C35          3.4630     4.4453     2.2371 C.3          1    LIG   0.0000
  36 H            5.1980     3.6571     3.0492 H            1    LIG   0.0000
  37 H            2.8293     2.8333     0.1786 H            1    LIG   0.0000
  38 H            7.2395     3.5078     2.9489 H            1    LIG   0.0000
  39 H            8.7457     4.3150     2.6669 H            1    LIG   0.0000
  40 H            5.2036     6.3130     2.2334 H            1    LIG   0.0000
  41 H            6.3218     3.1646     1.0271 H            1    LIG   0.0000
  42 H            5.1230     3.8769     0.1773 H            1    LIG   0.0000
  43 H            4.8081     1.5281     0.1821 H            1    LIG   0.0000
  44 H            4.8072     1.5233     1.8151 H            1    LIG   0.0000
  45 H           -0.1701    -0.4473     1.7500 H            1    LIG   0.0000
  46 H            0.1866     2.0943    -1.7597 H            1    LIG   0.0000
  47 H           -0.7423    -1.1250    -2.2084 H            1    LIG   0.0000
  48 H           -2.5763    -2.3143    -1.2267 H            1    LIG   0.0000
  49 H           -3.6689    -1.4370     0.7083 H            1    LIG   0.0000
  50 H           -2.9405     0.6238     1.6712 H            1    LIG   0.0000
  51 H           -1.1083     1.8206     0.6941 H            1    LIG   0.0000
  52 H            1.8244    -3.1361    -0.2739 H            1    LIG   0.0000
  53 H            3.3618    -4.7174    -1.1999 H            1    LIG   0.0000
  54 H            4.8123    -4.0901    -2.9938 H            1    LIG   0.0000
  55 H            3.1926    -0.2664    -2.9478 H            1    LIG   0.0000
  56 H            2.9255     2.6113     3.0513 H            1    LIG   0.0000
  57 H            1.7164     3.3211     2.2140 H            1    LIG   0.0000
  58 H            3.2175     4.9771     1.4266 H            1    LIG   0.0000
  59 H            3.2246     4.9617     3.0595 H            1    LIG   0.0000
@<TRIPOS>BOND
   1        1        2 am
   2        2        3 2
   3        2        4 am
   4        4        5 1
   5        5        6 1
   6        6        7 1
   7        7        8 1
   8        8        9 1
   9        9       10 2
  10        9       11 1
  11       11       12 1
  12       12       13 2
  13       13       14 1
  14       13       15 1
  15       15       16 1
  16       16       17 2
  17       17       18 1
  18       18       19 ar
  19       19       20 ar
  20       20       21 ar
  21       21       22 ar
  22       22       23 ar
  23       23       18 ar
  24       15       24 1
  25       24       25 ar
  26       25       26 ar
  27       26       27 ar
  28       27       28 ar
  29       28       29 1
  30       29       30 1
  31       29       31 1
  32       29       32 1
  33       28       33 ar
  34       33       24 ar
  35        8       34 1
  36       34       35 1
  37       35        5 1
  38        5       36 1
  39        8       37 1
  40        1       38 1
  41        1       39 1
  42        4       40 1
  43        6       41 1
  44        6       42 1
  45        7       43 1
  46        7       44 1
  47       12       45 1
  48       17       46 1
  49       19       47 1
  50       20       48 1
  51       21       49 1
  52       22       50 1
  53       23       51 1
  54       25       52 1
  55       26       53 1
  56       27       54 1
  57       33       55 1
  58       34       56 1
  59       34       57 1
  60       35       58 1
  61       35       59 1

@<TRIPOS>MOLECULE

  59   61
SMALL
USER_CHARGES
@<TRIPOS>ATOM
   1 N1           7.7458     4.3197     2.6582 N.am         1    LIG   0.0000
   2 C2           7.0695     5.4383     2.2482 C.2          1    LIG   0.0000
   3 O3           7.6770     6.4126     1.8995 O.2          1    LIG   0.0000
   4 N4           5.6996     5.4447     2.2364 N.am         1    LIG   0.0000
   5 C5           4.9589     4.1754     2.2281 C.3          1    LIG   0.0000
   6 C6           5.3411     3.3587     1.0043 C.3          1    LIG   0.0000
   7 C7           4.5668     2.0504     1.0000 C.3          1    LIG   0.0000
   8 C8           3.0700     2.3163     1.0000 C.3          1    LIG   0.0000
   9 C9           2.3100     1.0000     1.0000 C.2          1    LIG   0.0000
  10 O10          2.9100    -0.0392     1.0000 O.2          1    LIG   0.0000
  11 O11          1.0000     1.0000     1.0000 O.3          1    LIG   0.0000
  12 C12          0.4360    -0.1824     1.0000 C.2          1    LIG   0.0000
  13 C13         -0.8600    -0.2844     1.0000 C.2          1    LIG   0.0000
  14 O14         -1.4713    -1.5661     1.0000 O.3          1    LIG  -1.0000
  15 N15         -1.6359     0.8447     1.0000 N.pl3        1    LIG   0.0000
  16 N16         -1.2749     1.9240     0.2374 N.2          1    LIG   0.0000
  17 C17         -0.6461     1.6254    -0.8009 C.2          1    LIG   0.0000
  18 C18         -0.3624     0.2355    -1.1023 C.ar         1    LIG   0.0000
  19 C19         -1.4127    -0.6619    -1.2645 C.ar         1    LIG   0.0000
  20 C20         -1.1314    -1.9932    -1.5527 C.ar         1    LIG   0.0000
  21 C21          0.1889    -2.4150    -1.6762 C.ar         1    LIG   0.0000
  22 C22          1.2332    -1.5106    -1.5127 C.ar         1    LIG   0.0000
  23 C23          0.9605    -0.1773    -1.2236 C.ar         1    LIG   0.0000
  24 C24         -2.7979     0.8955     1.7793 C.ar         1    LIG   0.0000
  25 C25         -3.1550    -0.2060     2.5504 C.ar         1    LIG   0.0000
  26 C26         -4.3116    -0.1442     3.3204 C.ar         1    LIG   0.0000
  27 C27         -5.1040     0.9987     3.3256 C.ar         1    LIG   0.0000
  28 C28         -4.7278     2.0885     2.5472 C.ar         1    LIG   0.0000
  29 C29         -5.5875     3.3420     2.5456 C.3          1    LIG   0.0000
  30 F30         -6.7339     3.0942     3.1728 F            1    LIG   0.0000
  31 F31         -4.9428     4.3226     3.1714 F            1    LIG   0.0000
  32 F32         -5.8382     3.7061     1.2912 F            1    LIG   0.0000
  33 C33         -3.5756     2.0484     1.7692 C.ar         1    LIG   0.0000
  34 C34          2.6982     3.1316     2.2281 C.3          1    LIG   0.0000
  35 C35          3.4630     4.4453     2.2371 C.3          1    LIG   0.0000
  36 H            5.1980     3.6571     3.0492 H            1    LIG   0.0000
  37 H            2.8293     2.8333     0.1786 H            1    LIG   0.0000
  38 H            7.2395     3.5078     2.9489 H            1    LIG   0.0000
  39 H            8.7457     4.3150     2.6669 H            1    LIG   0.0000
  40 H            5.2036     6.3130     2.2334 H            1    LIG   0.0000
  41 H            6.3218     3.1646     1.0271 H            1    LIG   0.0000
  42 H            5.1230     3.8769     0.1773 H            1    LIG   0.0000
  43 H            4.8081     1.5281     0.1821 H            1    LIG   0.0000
  44 H            4.8072     1.5233     1.8151 H            1    LIG   0.0000
  45 H            1.0024    -1.0065     1.0000 H            1    LIG   0.0000
  46 H           -0.3387     2.3449    -1.4236 H            1    LIG   0.0000
  47 H           -2.3597    -0.3533    -1.1748 H            1    LIG   0.0000
  48 H           -1.8783    -2.6476    -1.6712 H            1    LIG   0.0000
  49 H            0.3881    -3.3727    -1.8835 H            1    LIG   0.0000
  50 H            2.1802    -1.8189    -1.6030 H            1    LIG   0.0000
  51 H            1.7072     0.4771    -1.1043 H            1    LIG   0.0000
  52 H           -2.5886    -1.0301     2.5510 H            1    LIG   0.0000
  53 H           -4.5767    -0.9314     3.8772 H            1    LIG   0.0000
  54 H           -5.9340     1.0367     3.8821 H            1    LIG   0.0000
  55 H           -3.3108     2.8354     1.2120 H            1    LIG   0.0000
  56 H            2.9255     2.6113     3.0513 H            1    LIG   0.0000
  57 H            1.7164     3.3211     2.2140 H            1    LIG   0.0000
  58 H            3.2175     4.9771     1.4266 H            1    LIG   0.0000
  59 H            3.2246     4.9617     3.0595 H            1    LIG   0.0000
@<TRIPOS>BOND
   1        1        2 am
   2        2        3 2
   3        2        4 am
   4        4        5 1
   5        5        6 1
   6        6        7 1
   7        7        8 1
   8        8        9 1
   9        9       10 2
  10        9       11 1
  11       11       12 1
  12       12       13 2
  13       13       14 1
  14       13       15 1
  15       15       16 1
  16       16       17 2
  17       17       18 1
  18       18       19 ar
  19       19       20 ar
  20       20       21 ar
  21       21       22 ar
  22       22       23 ar
  23       23       18 ar
  24       15       24 1
  25       24       25 ar
  26       25       26 ar
  27       26       27 ar
  28       27       28 ar
  29       28       29 1
  30       29       30 1
  31       29       31 1
  32       29       32 1
  33       28       33 ar
  34       33       24 ar
  35        8       34 1
  36       34       35 1
  37       35        5 1
  38        5       36 1
  39        8       37 1
  40        1       38 1
  41        1       39 1
  42        4       40 1
  43        6       41 1
  44        6       42 1
  45        7       43 1
  46        7       44 1
  47       12       45 1
  48       17       46 1
  49       19       47 1
  50       20       48 1
  51       21       49 1
  52       22       50 1
  53       23       51 1
  54       25       52 1
  55       26       53 1
  56       27       54 1
  57       33       55 1
  58       34       56 1
  59       34       57 1
  60       35       58 1
  61       35       59 1

@<TRIPOS>MOLECULE

  59   61
SMALL
USER_CHARGES
@<TRIPOS>ATOM
   1 N1           7.7458     4.3197     2.6582 N.am         1    LIG   0.0000
   2 C2           7.0695     5.4383     2.2482 C.2          1    LIG   0.0000
   3 O3           7.6770     6.4126     1.8995 O.2          1    LIG   0.0000
   4 N4           5.6996     5.4447     2.2364 N.am         1    LIG   0.0000
   5 C5           4.9589     4.1754     2.2281 C.3          1    LIG   0.0000
   6 C6           5.3411     3.3587     1.0043 C.3          1    LIG   0.0000
   7 C7           4.5668     2.0504     1.0000 C.3          1    LIG   0.0000
   8 C8           3.0700     2.3163     1.0000 C.3          1    LIG   0.0000
   9 C9           2.3100     1.0000     1.0000 C.2          1    LIG   0.0000
  10 O10          2.9100    -0.0392     1.0000 O.2          1    LIG   0.0000
  11 O11          1.0000     1.0000     1.0000 O.3          1    LIG   0.0000
  12 C12          0.4360    -0.1824     1.0000 C.2          1    LIG   0.0000
  13 C13         -0.8600    -0.2844     1.0000 C.2          1    LIG   0.0000
  14 O14         -1.6643     0.8859     1.0000 O.3          1    LIG  -1.0000
  15 N15         -1.4498    -1.5209     1.0000 N.pl3        1    LIG   0.0000
  16 N16         -0.9243    -2.5305     0.2374 N.2          1    LIG   0.0000
  17 C17         -0.3500    -2.1372    -0.8009 C.2          1    LIG   0.0000
  18 C18         -0.2872    -0.7200    -1.1023 C.ar         1    LIG   0.0000
  19 C19         -1.4650     0.0020    -1.2645 C.ar         1    LIG   0.0000
  20 C20         -1.3954     1.3607    -1.5542 C.ar         1    LIG   0.0000
  21 C21         -0.1572     1.9836    -1.6784 C.ar         1    LIG   0.0000
  22 C22          1.0156     1.2538    -1.5144 C.ar         1    LIG   0.0000
  23 C23          0.9549    -0.1057    -1.2251 C.ar         1    LIG   0.0000
  24 C24         -2.5894    -1.7529     1.7793 C.ar         1    LIG   0.0000
  25 C25         -3.8499    -1.5319     1.2336 C.ar         1    LIG   0.0000
  26 C26         -4.9749    -1.7654     2.0173 C.ar         1    LIG   0.0000
  27 C27         -4.8498    -2.2143     3.3277 C.ar         1    LIG   0.0000
  28 C28         -3.5798    -2.4288     3.8530 C.ar         1    LIG   0.0000
  29 C29         -3.4326    -2.9187     5.2843 C.3          1    LIG   0.0000
  30 F30         -2.1861    -2.7098     5.6984 F            1    LIG   0.0000
  31 F31         -4.2774    -2.2557     6.0690 F            1    LIG   0.0000
  32 F32         -3.7055    -4.2193     5.3380 F            1    LIG   0.0000
  33 C33         -2.4411    -2.2013     3.0874 C.ar         1    LIG   0.0000
  34 C34          2.6982     3.1316     2.2281 C.3          1    LIG   0.0000
  35 C35          3.4630     4.4453     2.2371 C.3          1    LIG   0.0000
  36 H            5.1980     3.6571     3.0492 H            1    LIG   0.0000
  37 H            2.8293     2.8333     0.1786 H            1    LIG   0.0000
  38 H            7.2395     3.5078     2.9489 H            1    LIG   0.0000
  39 H            8.7457     4.3150     2.6669 H            1    LIG   0.0000
  40 H            5.2036     6.3130     2.2334 H            1    LIG   0.0000
  41 H            6.3218     3.1646     1.0271 H            1    LIG   0.0000
  42 H            5.1230     3.8769     0.1773 H            1    LIG   0.0000
  43 H            4.8081     1.5281     0.1821 H            1    LIG   0.0000
  44 H            4.8072     1.5233     1.8151 H            1    LIG   0.0000
  45 H            1.0024    -1.0065     1.0000 H            1    LIG   0.0000
  46 H            0.0662    -2.7998    -1.4236 H            1    LIG   0.0000
  47 H           -2.3520    -0.4507    -1.1738 H            1    LIG   0.0000
  48 H           -2.2354     1.8900    -1.6731 H            1    LIG   0.0000
  49 H           -0.1104     2.9605    -1.8867 H            1    LIG   0.0000
  50 H            1.9027     1.7065    -1.6043 H            1    LIG   0.0000
  51 H            1.7948    -0.6355    -1.1069 H            1    LIG   0.0000
  52 H           -3.9456    -1.2099     0.2917 H            1    LIG   0.0000
  53 H           -5.8850    -1.6086     1.6338 H            1    LIG   0.0000
  54 H           -5.6630    -2.3809     3.8855 H            1    LIG   0.0000
  55 H           -1.5309    -2.3575     3.4712 H            1    LIG   0.0000
  56 H            2.9255     2.6113     3.0513 H            1    LIG   0.0000
  57 H            1.7164     3.3211     2.2140 H            1    LIG   0.0000
  58 H            3.2175     4.9771     1.4266 H            1    LIG   0.0000
  59 H            3.2246     4.9617     3.0595 H            1    LIG   0.0000
@<TRIPOS>BOND
   1        1        2 am
   2        2        3 2
   3        2        4 am
   4        4        5 1
   5        5        6 1
   6        6        7 1
   7        7        8 1
   8        8        9 1
   9        9       10 2
  10        9       11 1
  11       11       12 1
  12       12       13 2
  13       13       14 1
  14       13       15 1
  15       15       16 1
  16       16       17 2
  17       17       18 1
  18       18       19 ar
  19       19       20 ar
  20       20       21 ar
  21       21       22 ar
  22       22       23 ar
  23       23       18 ar
  24       15       24 1
  25       24       25 ar
  26       25       26 ar
  27       26       27 ar
  28       27       28 ar
  29       28       29 1
  30       29       30 1
  31       29       31 1
  32       29       32 1
  33       28       33 ar
  34       33       24 ar
  35        8       34 1
  36       34       35 1
  37       35        5 1
  38        5       36 1
  39        8       37 1
  40        1       38 1
  41        1       39 1
  42        4       40 1
  43        6       41 1
  44        6       42 1
  45        7       43 1
  46        7       44 1
  47       12       45 1
  48       17       46 1
  49       19       47 1
  50       20       48 1
  51       21       49 1
  52       22       50 1
  53       23       51 1
  54       25       52 1
  55       26       53 1
  56       27       54 1
  57       33       55 1
  58       34       56 1
  59       34       57 1
  60       35       58 1
  61       35       59 1

