@<TRIPOS>MOLECULE
*****
 59 61 0 0 0
SMALL
USER_CHARGES

@<TRIPOS>ATOM
      1 N1          7.2387    6.9191    3.2794 N.am    1  LIG1        0.0000
      2 C2          6.5482    5.7358    3.2717 C.2     1  LIG1        0.0000
      3 O3          6.6868    4.9544    4.1718 O.2     1  LIG1        0.0000
      4 N4          5.6996    5.4447    2.2364 N.am    1  LIG1        0.0000
      5 C5          4.9589    4.1754    2.2281 C.3     1  LIG1        0.0000
      6 C6          5.3411    3.3587    1.0043 C.3     1  LIG1        0.0000
      7 C7          4.5668    2.0504    1.0000 C.3     1  LIG1        0.0000
      8 C8          3.0700    2.3163    1.0000 C.3     1  LIG1        0.0000
      9 C9          2.3100    1.0000    1.0000 C.2     1  LIG1        0.0000
     10 O10         2.9100   -0.0392    1.0000 O.2     1  LIG1        0.0000
     11 O11         1.0000    1.0000    1.0000 O.3     1  LIG1        0.0000
     12 C12         0.4360   -0.1824    1.0000 C.2     1  LIG1        0.0000
     13 C13        -0.8600   -0.2844    1.0000 C.2     1  LIG1        0.0000
     14 O14        -1.6643    0.8859    1.0000 O.2     1  LIG1       -1.0000
     15 N15        -1.4498   -1.5209    1.0000 N.pl3   1  LIG1        0.0000
     16 N16        -0.9243   -2.5305    0.2374 N.2     1  LIG1        0.0000
     17 C17        -0.3500   -2.1372   -0.8009 C.2     1  LIG1        0.0000
     18 C18        -0.2872   -0.7200   -1.1023 C.3     1  LIG1        0.0000
     19 C19        -1.4650    0.0020   -1.2645 C.3     1  LIG1        0.0000
     20 C20        -1.3954    1.3607   -1.5542 C.3     1  LIG1        0.0000
     21 C21        -0.1572    1.9836   -1.6784 C.3     1  LIG1        0.0000
     22 C22         1.0156    1.2538   -1.5144 C.3     1  LIG1        0.0000
     23 C23         0.9549   -0.1057   -1.2251 C.3     1  LIG1        0.0000
     24 C24        -2.5894   -1.7529    1.7793 C.3     1  LIG1        0.0000
     25 C25        -2.4453   -2.2011    3.0885 C.3     1  LIG1        0.0000
     26 C26        -3.5846   -2.4284    3.8531 C.3     1  LIG1        0.0000
     27 C27        -4.8526   -2.2122    3.3243 C.3     1  LIG1        0.0000
     28 C28        -4.9733   -1.7638    2.0131 C.3     1  LIG1        0.0000
     29 C29        -6.3548   -1.5251    1.4258 C.3     1  LIG1        0.0000
     30 F30        -7.0713   -2.6424    1.5096 F       1  LIG1        0.0000
     31 F31        -6.9634   -0.5562    2.1039 F       1  LIG1        0.0000
     32 F32        -6.2385   -1.1676    0.1500 F       1  LIG1        0.0000
     33 C33        -3.8477   -1.5304    1.2302 C.3     1  LIG1        0.0000
     34 C34         2.6982    3.1316    2.2281 C.3     1  LIG1        0.0000
     35 C35         3.4630    4.4453    2.2371 C.3     1  LIG1        0.0000
     36 H           5.1980    3.6571    3.0492 H       1  LIG1        0.0000
     37 H           2.8293    2.8333    0.1786 H       1  LIG1        0.0000
     38 H           7.1232    7.5703    2.5293 H       1  LIG1        0.0000
     39 H           7.8582    7.1316    4.0351 H       1  LIG1        0.0000
     40 H           5.5841    6.0959    1.4863 H       1  LIG1        0.0000
     41 H           6.3218    3.1646    1.0271 H       1  LIG1        0.0000
     42 H           5.1230    3.8769    0.1773 H       1  LIG1        0.0000
     43 H           4.8081    1.5281    0.1821 H       1  LIG1        0.0000
     44 H           4.8072    1.5233    1.8151 H       1  LIG1        0.0000
     45 H           1.0024   -1.0065    1.0000 H       1  LIG1        0.0000
     46 H           0.0662   -2.7998   -1.4236 H       1  LIG1        0.0000
     47 H          -2.3520   -0.4507   -1.1738 H       1  LIG1        0.0000
     48 H          -2.2354    1.8900   -1.6731 H       1  LIG1        0.0000
     49 H          -0.1104    2.9605   -1.8867 H       1  LIG1        0.0000
     50 H           1.9027    1.7065   -1.6043 H       1  LIG1        0.0000
     51 H           1.7948   -0.6355   -1.1069 H       1  LIG1        0.0000
     52 H          -1.5359   -2.3575    3.4740 H       1  LIG1        0.0000
     53 H          -3.4908   -2.7514    4.7949 H       1  LIG1        0.0000
     54 H          -5.6676   -2.3770    3.8799 H       1  LIG1        0.0000
     55 H          -3.9415   -1.2080    0.2883 H       1  LIG1        0.0000
     56 H           2.9255    2.6113    3.0513 H       1  LIG1        0.0000
     57 H           1.7164    3.3211    2.2140 H       1  LIG1        0.0000
     58 H           3.2175    4.9771    1.4266 H       1  LIG1        0.0000
     59 H           3.2246    4.9617    3.0595 H       1  LIG1        0.0000
@<TRIPOS>UNITY_ATOM_ATTR
14 1
charge -1
@<TRIPOS>BOND
     1     1     2   am
     2     2     3    2
     3     2     4   am
     4     4     5    1
     5     5     6    1
     6     6     7    1
     7     7     8    1
     8     8     9    1
     9     9    10    2
    10     9    11    1
    11    11    12    1
    12    12    13    2
    13    13    14    1
    14    13    15    1
    15    15    16    1
    16    16    17    2
    17    17    18    1
    18    18    19   ar
    19    19    20   ar
    20    20    21   ar
    21    21    22   ar
    22    22    23   ar
    23    23    18   ar
    24    15    24    1
    25    24    25   ar
    26    25    26   ar
    27    26    27   ar
    28    27    28   ar
    29    28    29    1
    30    29    30    1
    31    29    31    1
    32    29    32    1
    33    28    33   ar
    34    33    24   ar
    35     8    34    1
    36    34    35    1
    37    35     5    1
    38     5    36    1
    39     8    37    1
    40     1    38    1
    41     1    39    1
    42     4    40    1
    43     6    41    1
    44     6    42    1
    45     7    43    1
    46     7    44    1
    47    12    45    1
    48    17    46    1
    49    19    47    1
    50    20    48    1
    51    21    49    1
    52    22    50    1
    53    23    51    1
    54    25    52    1
    55    26    53    1
    56    27    54    1
    57    33    55    1
    58    34    56    1
    59    34    57    1
    60    35    58    1
    61    35    59    1
