@<TRIPOS>MOLECULE
*****
 59 61 0 0 0
SMALL
USER_CHARGES

@<TRIPOS>ATOM
      1 N1          7.2387    6.9191    3.2794 N.am    1  LIG1        0.0000
      2 C2          6.5482    5.7358    3.2717 C.2     1  LIG1        0.0000
      3 O3          6.6868    4.9544    4.1718 O.2     1  LIG1        0.0000
      4 N4          5.6996    5.4447    2.2364 N.am    1  LIG1        0.0000
      5 C5          4.9589    4.1754    2.2281 C.3     1  LIG1        0.0000
      6 C6          5.3411    3.3587    1.0043 C.3     1  LIG1        0.0000
      7 C7          4.5668    2.0504    1.0000 C.3     1  LIG1        0.0000
      8 C8          3.0700    2.3163    1.0000 C.3     1  LIG1        0.0000
      9 C9          2.3100    1.0000    1.0000 C.2     1  LIG1        0.0000
     10 O10         2.9100   -0.0392    1.0000 O.2     1  LIG1        0.0000
     11 O11         1.0000    1.0000    1.0000 O.3     1  LIG1        0.0000
     12 C12         0.4360   -0.1824    1.0000 C.2     1  LIG1        0.0000
     13 C13         0.1562   -0.7691   -0.1258 C.2     1  LIG1        0.0000
     14 O14         0.4619   -0.1282   -1.3556 O.2     1  LIG1       -1.0000
     15 N15        -0.4336   -2.0056   -0.1258 N.pl3   1  LIG1        0.0000
     16 N16        -1.4168   -2.2956   -1.0347 N.2     1  LIG1        0.0000
     17 C17        -2.0947   -1.3050   -1.3838 C.2     1  LIG1        0.0000
     18 C18        -1.8044    0.0037   -0.8304 C.3     1  LIG1        0.0000
     19 C19        -1.8885    0.2040    0.5436 C.3     1  LIG1        0.0000
     20 C20        -1.6092    1.4626    1.0656 C.3     1  LIG1        0.0000
     21 C21        -1.2498    2.5047    0.2163 C.3     1  LIG1        0.0000
     22 C22        -1.1679    2.2953   -1.1565 C.3     1  LIG1        0.0000
     23 C23        -1.4464    1.0396   -1.6870 C.3     1  LIG1        0.0000
     24 C24        -0.0315   -2.9729    0.8030 C.3     1  LIG1        0.0000
     25 C25        -0.6368   -4.2255    0.7939 C.3     1  LIG1        0.0000
     26 C26        -0.2295   -5.1785    1.7215 C.3     1  LIG1        0.0000
     27 C27         0.7683   -4.8913    2.6469 C.3     1  LIG1        0.0000
     28 C28         1.3599   -3.6324    2.6378 C.3     1  LIG1        0.0000
     29 C29         2.4508   -3.3086    3.6455 C.3     1  LIG1        0.0000
     30 F30         3.1635   -2.2735    3.2101 F       1  LIG1        0.0000
     31 F31         1.8971   -3.0047    4.8160 F       1  LIG1        0.0000
     32 F32         3.2464   -4.3643    3.7922 F       1  LIG1        0.0000
     33 C33         0.9678   -2.6641    1.7195 C.3     1  LIG1        0.0000
     34 C34         2.6982    3.1316    2.2281 C.3     1  LIG1        0.0000
     35 C35         3.4630    4.4453    2.2371 C.3     1  LIG1        0.0000
     36 H           5.1980    3.6571    3.0492 H       1  LIG1        0.0000
     37 H           2.8293    2.8333    0.1786 H       1  LIG1        0.0000
     38 H           7.1232    7.5703    2.5293 H       1  LIG1        0.0000
     39 H           7.8582    7.1316    4.0351 H       1  LIG1        0.0000
     40 H           5.5841    6.0959    1.4863 H       1  LIG1        0.0000
     41 H           6.3218    3.1646    1.0271 H       1  LIG1        0.0000
     42 H           5.1230    3.8769    0.1773 H       1  LIG1        0.0000
     43 H           4.8081    1.5281    0.1821 H       1  LIG1        0.0000
     44 H           4.8072    1.5233    1.8151 H       1  LIG1        0.0000
     45 H           0.2208   -0.6337    1.8660 H       1  LIG1        0.0000
     46 H          -2.8371   -1.4150   -2.0446 H       1  LIG1        0.0000
     47 H          -2.1470   -0.5485    1.1493 H       1  LIG1        0.0000
     48 H          -1.6665    1.6187    2.0517 H       1  LIG1        0.0000
     49 H          -1.0495    3.4084    0.5946 H       1  LIG1        0.0000
     50 H          -0.9088    3.0475   -1.7623 H       1  LIG1        0.0000
     51 H          -1.3898    0.8835   -2.6731 H       1  LIG1        0.0000
     52 H          -1.3542   -4.4376    0.1303 H       1  LIG1        0.0000
     53 H          -0.6594   -6.0813    1.7230 H       1  LIG1        0.0000
     54 H           1.0568   -5.5814    3.3106 H       1  LIG1        0.0000
     55 H           1.3973   -1.7611    1.7183 H       1  LIG1        0.0000
     56 H           2.9255    2.6113    3.0513 H       1  LIG1        0.0000
     57 H           1.7164    3.3211    2.2140 H       1  LIG1        0.0000
     58 H           3.2175    4.9771    1.4266 H       1  LIG1        0.0000
     59 H           3.2246    4.9617    3.0595 H       1  LIG1        0.0000
@<TRIPOS>UNITY_ATOM_ATTR
14 1
charge -1
@<TRIPOS>BOND
     1     1     2   am
     2     2     3    2
     3     2     4   am
     4     4     5    1
     5     5     6    1
     6     6     7    1
     7     7     8    1
     8     8     9    1
     9     9    10    2
    10     9    11    1
    11    11    12    1
    12    12    13    2
    13    13    14    1
    14    13    15    1
    15    15    16    1
    16    16    17    2
    17    17    18    1
    18    18    19   ar
    19    19    20   ar
    20    20    21   ar
    21    21    22   ar
    22    22    23   ar
    23    23    18   ar
    24    15    24    1
    25    24    25   ar
    26    25    26   ar
    27    26    27   ar
    28    27    28   ar
    29    28    29    1
    30    29    30    1
    31    29    31    1
    32    29    32    1
    33    28    33   ar
    34    33    24   ar
    35     8    34    1
    36    34    35    1
    37    35     5    1
    38     5    36    1
    39     8    37    1
    40     1    38    1
    41     1    39    1
    42     4    40    1
    43     6    41    1
    44     6    42    1
    45     7    43    1
    46     7    44    1
    47    12    45    1
    48    17    46    1
    49    19    47    1
    50    20    48    1
    51    21    49    1
    52    22    50    1
    53    23    51    1
    54    25    52    1
    55    26    53    1
    56    27    54    1
    57    33    55    1
    58    34    56    1
    59    34    57    1
    60    35    58    1
    61    35    59    1
