@<TRIPOS>MOLECULE
*****
 59 61 0 0 0
SMALL
USER_CHARGES

@<TRIPOS>ATOM
      1 N1          7.7458    4.3197    2.6582 N.am    1  LIG1        0.0000
      2 C2          7.0695    5.4383    2.2482 C.2     1  LIG1        0.0000
      3 O3          7.6770    6.4126    1.8995 O.2     1  LIG1        0.0000
      4 N4          5.6996    5.4447    2.2364 N.am    1  LIG1        0.0000
      5 C5          4.9589    4.1754    2.2281 C.3     1  LIG1        0.0000
      6 C6          5.3411    3.3587    1.0043 C.3     1  LIG1        0.0000
      7 C7          4.5668    2.0504    1.0000 C.3     1  LIG1        0.0000
      8 C8          3.0700    2.3163    1.0000 C.3     1  LIG1        0.0000
      9 C9          2.3100    1.0000    1.0000 C.2     1  LIG1        0.0000
     10 O10         2.9100   -0.0392    1.0000 O.2     1  LIG1        0.0000
     11 O11         1.0000    1.0000    1.0000 O.3     1  LIG1        0.0000
     12 C12         0.4360   -0.1824    1.0000 C.2     1  LIG1        0.0000
     13 C13         0.6643   -1.0114    0.0250 C.2     1  LIG1        0.0000
     14 O14         0.0530   -2.2931    0.0250 O.2     1  LIG1       -1.0000
     15 N15         1.4946   -0.6485   -1.0025 N.pl3   1  LIG1        0.0000
     16 N16         1.4474    0.6255   -1.5040 N.2     1  LIG1        0.0000
     17 C17         0.3222    1.1635   -1.4203 C.2     1  LIG1        0.0000
     18 C18        -0.7865    0.4378   -0.8310 C.3     1  LIG1        0.0000
     19 C19        -1.2031   -0.7619   -1.3986 C.3     1  LIG1        0.0000
     20 C20        -2.2678   -1.4509   -0.8273 C.3     1  LIG1        0.0000
     21 C21        -2.9037   -0.9394    0.2998 C.3     1  LIG1        0.0000
     22 C22        -2.4802    0.2610    0.8609 C.3     1  LIG1        0.0000
     23 C23        -1.4165    0.9568    0.2953 C.3     1  LIG1        0.0000
     24 C24         2.3914   -1.5796   -1.5400 C.3     1  LIG1        0.0000
     25 C25         2.4308   -2.8708   -1.0235 C.3     1  LIG1        0.0000
     26 C26         3.3258   -3.7872   -1.5652 C.3     1  LIG1        0.0000
     27 C27         4.1715   -3.4260   -2.6086 C.3     1  LIG1        0.0000
     28 C28         4.1151   -2.1296   -3.1097 C.3     1  LIG1        0.0000
     29 C29         5.0357   -1.7249   -4.2495 C.3     1  LIG1        0.0000
     30 F30         6.2849   -2.0745   -3.9559 F       1  LIG1        0.0000
     31 F31         4.6545   -2.3383   -5.3663 F       1  LIG1        0.0000
     32 F32         4.9732   -0.4078   -4.4235 F       1  LIG1        0.0000
     33 C33         3.2281   -1.1968   -2.5828 C.3     1  LIG1        0.0000
     34 C34         2.6982    3.1316    2.2281 C.3     1  LIG1        0.0000
     35 C35         3.4630    4.4453    2.2371 C.3     1  LIG1        0.0000
     36 H           5.1980    3.6571    3.0492 H       1  LIG1        0.0000
     37 H           2.8293    2.8333    0.1786 H       1  LIG1        0.0000
     38 H           7.2395    3.5078    2.9489 H       1  LIG1        0.0000
     39 H           8.7457    4.3150    2.6669 H       1  LIG1        0.0000
     40 H           5.2036    6.3130    2.2334 H       1  LIG1        0.0000
     41 H           6.3218    3.1646    1.0271 H       1  LIG1        0.0000
     42 H           5.1230    3.8769    0.1773 H       1  LIG1        0.0000
     43 H           4.8081    1.5281    0.1821 H       1  LIG1        0.0000
     44 H           4.8072    1.5233    1.8151 H       1  LIG1        0.0000
     45 H          -0.1701   -0.4473    1.7500 H       1  LIG1        0.0000
     46 H           0.1866    2.0943   -1.7597 H       1  LIG1        0.0000
     47 H          -0.7423   -1.1250   -2.2084 H       1  LIG1        0.0000
     48 H          -2.5763   -2.3143   -1.2267 H       1  LIG1        0.0000
     49 H          -3.6689   -1.4370    0.7083 H       1  LIG1        0.0000
     50 H          -2.9405    0.6238    1.6712 H       1  LIG1        0.0000
     51 H          -1.1083    1.8206    0.6941 H       1  LIG1        0.0000
     52 H           1.8244   -3.1361   -0.2739 H       1  LIG1        0.0000
     53 H           3.3618   -4.7174   -1.1999 H       1  LIG1        0.0000
     54 H           4.8123   -4.0901   -2.9938 H       1  LIG1        0.0000
     55 H           3.1926   -0.2664   -2.9478 H       1  LIG1        0.0000
     56 H           2.9255    2.6113    3.0513 H       1  LIG1        0.0000
     57 H           1.7164    3.3211    2.2140 H       1  LIG1        0.0000
     58 H           3.2175    4.9771    1.4266 H       1  LIG1        0.0000
     59 H           3.2246    4.9617    3.0595 H       1  LIG1        0.0000
@<TRIPOS>UNITY_ATOM_ATTR
14 1
charge -1
@<TRIPOS>BOND
     1     1     2   am
     2     2     3    2
     3     2     4   am
     4     4     5    1
     5     5     6    1
     6     6     7    1
     7     7     8    1
     8     8     9    1
     9     9    10    2
    10     9    11    1
    11    11    12    1
    12    12    13    2
    13    13    14    1
    14    13    15    1
    15    15    16    1
    16    16    17    2
    17    17    18    1
    18    18    19   ar
    19    19    20   ar
    20    20    21   ar
    21    21    22   ar
    22    22    23   ar
    23    23    18   ar
    24    15    24    1
    25    24    25   ar
    26    25    26   ar
    27    26    27   ar
    28    27    28   ar
    29    28    29    1
    30    29    30    1
    31    29    31    1
    32    29    32    1
    33    28    33   ar
    34    33    24   ar
    35     8    34    1
    36    34    35    1
    37    35     5    1
    38     5    36    1
    39     8    37    1
    40     1    38    1
    41     1    39    1
    42     4    40    1
    43     6    41    1
    44     6    42    1
    45     7    43    1
    46     7    44    1
    47    12    45    1
    48    17    46    1
    49    19    47    1
    50    20    48    1
    51    21    49    1
    52    22    50    1
    53    23    51    1
    54    25    52    1
    55    26    53    1
    56    27    54    1
    57    33    55    1
    58    34    56    1
    59    34    57    1
    60    35    58    1
    61    35    59    1
