@<TRIPOS>MOLECULE

  25   27
SMALL
USER_CHARGES
@<TRIPOS>ATOM
   1 O1           2.3167    -0.8147    -0.2209 O.3          1    LIG   0.0000
   2 C2           1.3599     0.1206    -0.7023 C.3          1    LIG   0.0000
   3 C3           1.5067     1.4487     0.0036 C.3          1    LIG   0.0000
   4 C4           0.0006     1.5026    -0.0044 C.3          1    LIG   0.0000
   5 O5          -0.5277     2.0521     1.1973 O.3          1    LIG   0.0000
   6 C6          -1.8595     2.2732     1.1989 C.2          1    LIG   0.0000
   7 N7          -2.5466     1.9691     0.1116 N.2          1    LIG   0.0000
   8 C8          -3.9004     2.1746     0.0637 C.2          1    LIG   0.0000
   9 N9          -4.4968     2.6814     1.1286 N.2          1    LIG   0.0000
  10 C10         -3.7944     2.9992     2.2635 C.2          1    LIG   0.0000
  11 C11         -4.1364     3.5142     3.4755 C.2          1    LIG   0.0000
  12 Br12        -5.9393     4.0260     4.0513 Br           1    LIG   0.0000
  13 C13         -2.9566     3.6191     4.2450 C.2          1    LIG   0.0000
  14 N14         -1.9860     3.1736     3.4858 N.2          1    LIG   0.0000
  15 N15         -2.4585     2.7991     2.3153 N.pl3        1    LIG   0.0000
  16 C16          0.0498    -0.0113     0.0367 C.3          1    LIG   0.0000
  17 H            1.2825     0.1748    -1.6978 H            1    LIG   0.0000
  18 H           -0.3952     1.8809    -0.8411 H            1    LIG   0.0000
  19 H            2.2025    -1.6850    -0.7000 H            1    LIG   0.0000
  20 H            1.9223     1.4002     0.9118 H            1    LIG   0.0000
  21 H            1.9573     2.1634    -0.5315 H            1    LIG   0.0000
  22 H           -4.4244     1.9467    -0.7570 H            1    LIG   0.0000
  23 H           -2.8779     3.9638     5.1804 H            1    LIG   0.0000
  24 H           -0.6778    -0.4719    -0.4717 H            1    LIG   0.0000
  25 H            0.1189    -0.4074     0.9523 H            1    LIG   0.0000
@<TRIPOS>BOND
   1        1        2 1
   2        2        3 1
   3        3        4 1
   4        4        5 1
   5        5        6 1
   6        6        7 2
   7        7        8 1
   8        8        9 2
   9        9       10 1
  10       10       11 2
  11       11       12 1
  12       11       13 1
  13       13       14 2
  14       14       15 1
  15       15        6 1
  16       15       10 1
  17        4       16 1
  18       16        2 1
  19        2       17 1
  20        4       18 1
  21        1       19 1
  22        3       20 1
  23        3       21 1
  24        8       22 1
  25       13       23 1
  26       16       24 1
  27       16       25 1

@<TRIPOS>MOLECULE

  25   27
SMALL
USER_CHARGES
@<TRIPOS>ATOM
   1 O1           2.3167    -0.8147    -0.2209 O.3          1    LIG   0.0000
   2 C2           1.3599     0.1206    -0.7023 C.3          1    LIG   0.0000
   3 C3           1.5067     1.4487     0.0036 C.3          1    LIG   0.0000
   4 C4           0.0006     1.5026    -0.0044 C.3          1    LIG   0.0000
   5 O5          -0.5277     2.0521     1.1973 O.3          1    LIG   0.0000
   6 C6          -1.8595     2.2732     1.1989 C.2          1    LIG   0.0000
   7 N7          -2.4089     2.7828     2.2876 N.2          1    LIG   0.0000
   8 C8          -3.7563     3.0258     2.3387 C.2          1    LIG   0.0000
   9 N9          -4.4870     2.7394     1.2754 N.2          1    LIG   0.0000
  10 C10         -3.9276     2.2121     0.1390 C.2          1    LIG   0.0000
  11 C11         -4.4206     1.8358    -1.0720 C.2          1    LIG   0.0000
  12 Br12        -6.2934     1.9344    -1.6434 Br           1    LIG   0.0000
  13 C13         -3.3397     1.3554    -1.8442 C.2          1    LIG   0.0000
  14 N14         -2.2755     1.4630    -1.0874 N.2          1    LIG   0.0000
  15 N15         -2.5989     1.9697     0.0840 N.pl3        1    LIG   0.0000
  16 C16          0.0498    -0.0113     0.0367 C.3          1    LIG   0.0000
  17 H            1.2825     0.1748    -1.6978 H            1    LIG   0.0000
  18 H           -0.3952     1.8809    -0.8411 H            1    LIG   0.0000
  19 H            2.2025    -1.6850    -0.7000 H            1    LIG   0.0000
  20 H            1.9223     1.4002     0.9118 H            1    LIG   0.0000
  21 H            1.9573     2.1634    -0.5315 H            1    LIG   0.0000
  22 H           -4.1766     3.4106     3.1605 H            1    LIG   0.0000
  23 H           -3.3788     1.0041    -2.7797 H            1    LIG   0.0000
  24 H           -0.6778    -0.4719    -0.4717 H            1    LIG   0.0000
  25 H            0.1189    -0.4074     0.9523 H            1    LIG   0.0000
@<TRIPOS>BOND
   1        1        2 1
   2        2        3 1
   3        3        4 1
   4        4        5 1
   5        5        6 1
   6        6        7 2
   7        7        8 1
   8        8        9 2
   9        9       10 1
  10       10       11 2
  11       11       12 1
  12       11       13 1
  13       13       14 2
  14       14       15 1
  15       15        6 1
  16       15       10 1
  17        4       16 1
  18       16        2 1
  19        2       17 1
  20        4       18 1
  21        1       19 1
  22        3       20 1
  23        3       21 1
  24        8       22 1
  25       13       23 1
  26       16       24 1
  27       16       25 1

@<TRIPOS>MOLECULE

  25   27
SMALL
USER_CHARGES
@<TRIPOS>ATOM
   1 O1           2.3167    -0.8147    -0.2209 O.3          1    LIG   0.0000
   2 C2           1.3599     0.1206    -0.7023 C.3          1    LIG   0.0000
   3 C3           1.5067     1.4487     0.0036 C.3          1    LIG   0.0000
   4 C4           0.0006     1.5026    -0.0044 C.3          1    LIG   0.0000
   5 O5          -0.5277     2.0521     1.1973 O.3          1    LIG   0.0000
   6 C6          -0.7540     3.3828     1.1776 C.2          1    LIG   0.0000
   7 N7          -0.4734     4.0499     0.0717 N.2          1    LIG   0.0000
   8 C8          -0.6855     5.4018     0.0017 C.2          1    LIG   0.0000
   9 N9          -1.1764     6.0164     1.0637 N.2          1    LIG   0.0000
  10 C10         -1.4733     5.3341     2.2164 C.2          1    LIG   0.0000
  11 C11         -1.9793     5.6954     3.4266 C.2          1    LIG   0.0000
  12 Br12        -2.5009     7.5048     3.9724 Br           1    LIG   0.0000
  13 C13         -2.0572     4.5315     4.2233 C.2          1    LIG   0.0000
  14 N14         -1.6104     3.5503     3.4787 N.2          1    LIG   0.0000
  15 N15         -1.2650     4.0006     2.2907 N.pl3        1    LIG   0.0000
  16 C16          0.0498    -0.0113     0.0367 C.3          1    LIG   0.0000
  17 H            1.2825     0.1748    -1.6978 H            1    LIG   0.0000
  18 H           -0.3952     1.8809    -0.8411 H            1    LIG   0.0000
  19 H            2.2025    -1.6850    -0.7000 H            1    LIG   0.0000
  20 H            1.9223     1.4002     0.9118 H            1    LIG   0.0000
  21 H            1.9573     2.1634    -0.5315 H            1    LIG   0.0000
  22 H           -0.4740     5.9109    -0.8327 H            1    LIG   0.0000
  23 H           -2.3867     4.4691     5.1653 H            1    LIG   0.0000
  24 H           -0.6778    -0.4719    -0.4717 H            1    LIG   0.0000
  25 H            0.1189    -0.4074     0.9523 H            1    LIG   0.0000
@<TRIPOS>BOND
   1        1        2 1
   2        2        3 1
   3        3        4 1
   4        4        5 1
   5        5        6 1
   6        6        7 2
   7        7        8 1
   8        8        9 2
   9        9       10 1
  10       10       11 2
  11       11       12 1
  12       11       13 1
  13       13       14 2
  14       14       15 1
  15       15        6 1
  16       15       10 1
  17        4       16 1
  18       16        2 1
  19        2       17 1
  20        4       18 1
  21        1       19 1
  22        3       20 1
  23        3       21 1
  24        8       22 1
  25       13       23 1
  26       16       24 1
  27       16       25 1

@<TRIPOS>MOLECULE

  25   27
SMALL
USER_CHARGES
@<TRIPOS>ATOM
   1 O1           2.3167    -0.8147    -0.2209 O.3          1    LIG   0.0000
   2 C2           1.3599     0.1206    -0.7023 C.3          1    LIG   0.0000
   3 C3           1.5067     1.4487     0.0036 C.3          1    LIG   0.0000
   4 C4           0.0006     1.5026    -0.0044 C.3          1    LIG   0.0000
   5 O5          -0.5277     2.0521     1.1973 O.3          1    LIG   0.0000
   6 C6          -0.7540     3.3828     1.1776 C.2          1    LIG   0.0000
   7 N7          -1.2447     3.9513     2.2652 N.2          1    LIG   0.0000
   8 C8          -1.4915     5.2987     2.2953 C.2          1    LIG   0.0000
   9 N9          -1.2260     6.0102     1.2136 N.2          1    LIG   0.0000
  10 C10         -0.7147     5.4315     0.0796 C.2          1    LIG   0.0000
  11 C11         -0.3506     5.9046    -1.1430 C.2          1    LIG   0.0000
  12 Br12        -0.4535     7.7682    -1.7432 Br           1    LIG   0.0000
  13 C13          0.1113     4.8095    -1.9062 C.2          1    LIG   0.0000
  14 N14          0.0102     3.7575    -1.1315 N.2          1    LIG   0.0000
  15 N15         -0.4703     4.1024     0.0447 N.pl3        1    LIG   0.0000
  16 C16          0.0498    -0.0113     0.0367 C.3          1    LIG   0.0000
  17 H            1.2825     0.1748    -1.6978 H            1    LIG   0.0000
  18 H           -0.3952     1.8809    -0.8411 H            1    LIG   0.0000
  19 H            2.2025    -1.6850    -0.7000 H            1    LIG   0.0000
  20 H            1.9223     1.4002     0.9118 H            1    LIG   0.0000
  21 H            1.9573     2.1634    -0.5315 H            1    LIG   0.0000
  22 H           -1.8634     5.7331     3.1156 H            1    LIG   0.0000
  23 H            0.4476     4.8323    -2.8477 H            1    LIG   0.0000
  24 H           -0.6778    -0.4719    -0.4717 H            1    LIG   0.0000
  25 H            0.1189    -0.4074     0.9523 H            1    LIG   0.0000
@<TRIPOS>BOND
   1        1        2 1
   2        2        3 1
   3        3        4 1
   4        4        5 1
   5        5        6 1
   6        6        7 2
   7        7        8 1
   8        8        9 2
   9        9       10 1
  10       10       11 2
  11       11       12 1
  12       11       13 1
  13       13       14 2
  14       14       15 1
  15       15        6 1
  16       15       10 1
  17        4       16 1
  18       16        2 1
  19        2       17 1
  20        4       18 1
  21        1       19 1
  22        3       20 1
  23        3       21 1
  24        8       22 1
  25       13       23 1
  26       16       24 1
  27       16       25 1

@<TRIPOS>MOLECULE

  25   27
SMALL
USER_CHARGES
@<TRIPOS>ATOM
   1 O1          -0.9719    -0.5570    -0.8439 O.3          1    LIG   0.0000
   2 C2           0.0273     0.0043    -0.0027 C.3          1    LIG   0.0000
   3 C3           1.3449     0.1305    -0.7247 C.3          1    LIG   0.0000
   4 C4           1.5004     1.4418     0.0147 C.3          1    LIG   0.0000
   5 O5           2.0884     2.4346    -0.8128 O.3          1    LIG   0.0000
   6 C6           2.1260     3.6789    -0.2906 C.2          1    LIG   0.0000
   7 N7           1.6250     3.8667     0.9179 N.2          1    LIG   0.0000
   8 C8           1.6397     5.1109     1.4917 C.2          1    LIG   0.0000
   9 N9           2.1664     6.1117     0.8079 N.2          1    LIG   0.0000
  10 C10          2.6911     5.9284    -0.4465 C.2          1    LIG   0.0000
  11 C11          3.2852     6.7503    -1.3535 C.2          1    LIG   0.0000
  12 Br12         3.6159     8.6706    -1.1367 Br           1    LIG   0.0000
  13 C13          3.6176     5.9717    -2.4842 C.2          1    LIG   0.0000
  14 N14          3.2229     4.7517    -2.2148 N.2          1    LIG   0.0000
  15 N15          2.6782     4.7031    -1.0171 N.pl3        1    LIG   0.0000
  16 C16         -0.0101     1.5141    -0.0276 C.3          1    LIG   0.0000
  17 H            0.0848    -0.4002     0.9101 H            1    LIG   0.0000
  18 H            1.8948     1.3667     0.9306 H            1    LIG   0.0000
  19 H           -1.8318    -0.6279    -0.3385 H            1    LIG   0.0000
  20 H            2.0221    -0.5680    -0.4935 H            1    LIG   0.0000
  21 H            1.2758     0.2116    -1.7191 H            1    LIG   0.0000
  22 H            1.2612     5.2580     2.4055 H            1    LIG   0.0000
  23 H            4.0640     6.2878    -3.3213 H            1    LIG   0.0000
  24 H           -0.3912     1.9139    -0.8612 H            1    LIG   0.0000
  25 H           -0.4356     1.9398     0.7710 H            1    LIG   0.0000
@<TRIPOS>BOND
   1        1        2 1
   2        2        3 1
   3        3        4 1
   4        4        5 1
   5        5        6 1
   6        6        7 2
   7        7        8 1
   8        8        9 2
   9        9       10 1
  10       10       11 2
  11       11       12 1
  12       11       13 1
  13       13       14 2
  14       14       15 1
  15       15        6 1
  16       15       10 1
  17        4       16 1
  18       16        2 1
  19        2       17 1
  20        4       18 1
  21        1       19 1
  22        3       20 1
  23        3       21 1
  24        8       22 1
  25       13       23 1
  26       16       24 1
  27       16       25 1

@<TRIPOS>MOLECULE

  25   27
SMALL
USER_CHARGES
@<TRIPOS>ATOM
   1 O1          -0.9719    -0.5570    -0.8439 O.3          1    LIG   0.0000
   2 C2           0.0273     0.0043    -0.0027 C.3          1    LIG   0.0000
   3 C3           1.3449     0.1305    -0.7247 C.3          1    LIG   0.0000
   4 C4           1.5004     1.4418     0.0147 C.3          1    LIG   0.0000
   5 O5           2.0884     2.4346    -0.8128 O.3          1    LIG   0.0000
   6 C6           2.1260     3.6789    -0.2906 C.2          1    LIG   0.0000
   7 N7           2.6618     4.6463    -1.0142 N.2          1    LIG   0.0000
   8 C8           2.7233     5.9261    -0.5287 C.2          1    LIG   0.0000
   9 N9           2.2342     6.1652     0.6755 N.2          1    LIG   0.0000
  10 C10          1.6738     5.1695     1.4351 C.2          1    LIG   0.0000
  11 C11          1.1033     5.1278     2.6695 C.2          1    LIG   0.0000
  12 Br12         0.8764     6.6419     3.8942 Br           1    LIG   0.0000
  13 C13          0.7071     3.7941     2.9137 C.2          1    LIG   0.0000
  14 N14          1.0443     3.1130     1.8463 N.2          1    LIG   0.0000
  15 N15          1.6116     3.9052     0.9608 N.pl3        1    LIG   0.0000
  16 C16         -0.0101     1.5141    -0.0276 C.3          1    LIG   0.0000
  17 H            0.0848    -0.4002     0.9101 H            1    LIG   0.0000
  18 H            1.8948     1.3667     0.9306 H            1    LIG   0.0000
  19 H           -1.8318    -0.6279    -0.3385 H            1    LIG   0.0000
  20 H            2.0221    -0.5680    -0.4935 H            1    LIG   0.0000
  21 H            1.2758     0.2116    -1.7191 H            1    LIG   0.0000
  22 H            3.1285     6.6612    -1.0723 H            1    LIG   0.0000
  23 H            0.2596     3.4410     3.7353 H            1    LIG   0.0000
  24 H           -0.3912     1.9139    -0.8612 H            1    LIG   0.0000
  25 H           -0.4356     1.9398     0.7710 H            1    LIG   0.0000
@<TRIPOS>BOND
   1        1        2 1
   2        2        3 1
   3        3        4 1
   4        4        5 1
   5        5        6 1
   6        6        7 2
   7        7        8 1
   8        8        9 2
   9        9       10 1
  10       10       11 2
  11       11       12 1
  12       11       13 1
  13       13       14 2
  14       14       15 1
  15       15        6 1
  16       15       10 1
  17        4       16 1
  18       16        2 1
  19        2       17 1
  20        4       18 1
  21        1       19 1
  22        3       20 1
  23        3       21 1
  24        8       22 1
  25       13       23 1
  26       16       24 1
  27       16       25 1

@<TRIPOS>MOLECULE

  25   27
SMALL
USER_CHARGES
@<TRIPOS>ATOM
   1 O1          -0.9719    -0.5570    -0.8439 O.3          1    LIG   0.0000
   2 C2           0.0273     0.0043    -0.0027 C.3          1    LIG   0.0000
   3 C3           1.3449     0.1305    -0.7247 C.3          1    LIG   0.0000
   4 C4           1.5004     1.4418     0.0147 C.3          1    LIG   0.0000
   5 O5           2.0884     2.4346    -0.8128 O.3          1    LIG   0.0000
   6 C6           1.2832     3.4661    -1.1445 C.2          1    LIG   0.0000
   7 N7           0.4736     3.9518    -0.2197 N.2          1    LIG   0.0000
   8 C8          -0.3626     4.9985    -0.5068 C.2          1    LIG   0.0000
   9 N9          -0.3368     5.5067    -1.7265 N.2          1    LIG   0.0000
  10 C10          0.5006     5.0122    -2.6943 C.2          1    LIG   0.0000
  11 C11          0.7375     5.3326    -3.9952 C.2          1    LIG   0.0000
  12 Br12        -0.1396     6.7575    -5.0170 Br           1    LIG   0.0000
  13 C13          1.7273     4.4495    -4.4807 C.2          1    LIG   0.0000
  14 N14          2.0350     3.6619    -3.4797 N.2          1    LIG   0.0000
  15 N15          1.3269     3.9791    -2.4160 N.pl3        1    LIG   0.0000
  16 C16         -0.0101     1.5141    -0.0276 C.3          1    LIG   0.0000
  17 H            0.0848    -0.4002     0.9101 H            1    LIG   0.0000
  18 H            1.8948     1.3667     0.9306 H            1    LIG   0.0000
  19 H           -1.8318    -0.6279    -0.3385 H            1    LIG   0.0000
  20 H            2.0221    -0.5680    -0.4935 H            1    LIG   0.0000
  21 H            1.2758     0.2116    -1.7191 H            1    LIG   0.0000
  22 H           -0.9775     5.3688     0.1895 H            1    LIG   0.0000
  23 H            2.1150     4.4295    -5.4022 H            1    LIG   0.0000
  24 H           -0.3912     1.9139    -0.8612 H            1    LIG   0.0000
  25 H           -0.4356     1.9398     0.7710 H            1    LIG   0.0000
@<TRIPOS>BOND
   1        1        2 1
   2        2        3 1
   3        3        4 1
   4        4        5 1
   5        5        6 1
   6        6        7 2
   7        7        8 1
   8        8        9 2
   9        9       10 1
  10       10       11 2
  11       11       12 1
  12       11       13 1
  13       13       14 2
  14       14       15 1
  15       15        6 1
  16       15       10 1
  17        4       16 1
  18       16        2 1
  19        2       17 1
  20        4       18 1
  21        1       19 1
  22        3       20 1
  23        3       21 1
  24        8       22 1
  25       13       23 1
  26       16       24 1
  27       16       25 1

@<TRIPOS>MOLECULE

  25   27
SMALL
USER_CHARGES
@<TRIPOS>ATOM
   1 O1           3.2298     1.3588     0.7805 O.3          1    LIG   0.0000
   2 C2           1.8754     1.7605     0.5913 C.3          1    LIG   0.0000
   3 C3           1.5147     2.1179    -0.8296 C.3          1    LIG   0.0000
   4 C4           0.5614     0.9416    -0.8872 C.3          1    LIG   0.0000
   5 O5          -0.7899     1.3550    -1.0512 O.3          1    LIG   0.0000
   6 C6          -1.2266     1.4216    -2.3269 C.2          1    LIG   0.0000
   7 N7          -0.4059     1.8993    -3.2461 N.2          1    LIG   0.0000
   8 C8          -0.8019     1.9870    -4.5549 C.2          1    LIG   0.0000
   9 N9          -2.0196     1.5821    -4.8710 N.2          1    LIG   0.0000
  10 C10         -2.8796     1.0826    -3.9259 C.2          1    LIG   0.0000
  11 C11         -4.1513     0.6004    -3.9637 C.2          1    LIG   0.0000
  12 Br12        -5.2883     0.4509    -5.5538 Br           1    LIG   0.0000
  13 C13         -4.5087     0.2306    -2.6481 C.2          1    LIG   0.0000
  14 N14         -3.4665     0.4962    -1.8996 N.2          1    LIG   0.0000
  15 N15         -2.4938     0.9949    -2.6333 N.pl3        1    LIG   0.0000
  16 C16          0.8714     0.6221     0.5577 C.3          1    LIG   0.0000
  17 H            1.6056     2.4762     1.2354 H            1    LIG   0.0000
  18 H            0.8435     0.2263    -1.5266 H            1    LIG   0.0000
  19 H            3.3814     1.1415     1.7448 H            1    LIG   0.0000
  20 H            1.0699     3.0083    -0.9258 H            1    LIG   0.0000
  21 H            2.2784     2.0557    -1.4721 H            1    LIG   0.0000
  22 H           -0.1847     2.3485    -5.2537 H            1    LIG   0.0000
  23 H           -5.3809    -0.1560    -2.3485 H            1    LIG   0.0000
  24 H            1.2742    -0.2823     0.6989 H            1    LIG   0.0000
  25 H            0.0964     0.7423     1.1781 H            1    LIG   0.0000
@<TRIPOS>BOND
   1        1        2 1
   2        2        3 1
   3        3        4 1
   4        4        5 1
   5        5        6 1
   6        6        7 2
   7        7        8 1
   8        8        9 2
   9        9       10 1
  10       10       11 2
  11       11       12 1
  12       11       13 1
  13       13       14 2
  14       14       15 1
  15       15        6 1
  16       15       10 1
  17        4       16 1
  18       16        2 1
  19        2       17 1
  20        4       18 1
  21        1       19 1
  22        3       20 1
  23        3       21 1
  24        8       22 1
  25       13       23 1
  26       16       24 1
  27       16       25 1

@<TRIPOS>MOLECULE

  25   27
SMALL
USER_CHARGES
@<TRIPOS>ATOM
   1 O1           3.2298     1.3588     0.7805 O.3          1    LIG   0.0000
   2 C2           1.8754     1.7605     0.5913 C.3          1    LIG   0.0000
   3 C3           1.5147     2.1179    -0.8296 C.3          1    LIG   0.0000
   4 C4           0.5614     0.9416    -0.8872 C.3          1    LIG   0.0000
   5 O5          -0.7899     1.3550    -1.0512 O.3          1    LIG   0.0000
   6 C6          -1.2266     1.4216    -2.3269 C.2          1    LIG   0.0000
   7 N7          -2.4527     1.0056    -2.5922 N.2          1    LIG   0.0000
   8 C8          -2.9422     1.0530    -3.8710 C.2          1    LIG   0.0000
   9 N9          -2.1597     1.5242    -4.8261 N.2          1    LIG   0.0000
  10 C10         -0.8859     1.9606    -4.5625 C.2          1    LIG   0.0000
  11 C11          0.1120     2.4845    -5.3246 C.2          1    LIG   0.0000
  12 Br12         0.0438     2.8178    -7.2554 Br           1    LIG   0.0000
  13 C13          1.2105     2.7414    -4.4746 C.2          1    LIG   0.0000
  14 N14          0.8355     2.3741    -3.2741 N.2          1    LIG   0.0000
  15 N15         -0.3981     1.9151    -3.3026 N.pl3        1    LIG   0.0000
  16 C16          0.8714     0.6221     0.5577 C.3          1    LIG   0.0000
  17 H            1.6056     2.4762     1.2354 H            1    LIG   0.0000
  18 H            0.8435     0.2263    -1.5266 H            1    LIG   0.0000
  19 H            3.3814     1.1415     1.7448 H            1    LIG   0.0000
  20 H            1.0699     3.0083    -0.9258 H            1    LIG   0.0000
  21 H            2.2784     2.0557    -1.4721 H            1    LIG   0.0000
  22 H           -3.8690     0.7387    -4.0767 H            1    LIG   0.0000
  23 H            2.0958     3.1259    -4.7363 H            1    LIG   0.0000
  24 H            1.2742    -0.2823     0.6989 H            1    LIG   0.0000
  25 H            0.0964     0.7423     1.1781 H            1    LIG   0.0000
@<TRIPOS>BOND
   1        1        2 1
   2        2        3 1
   3        3        4 1
   4        4        5 1
   5        5        6 1
   6        6        7 2
   7        7        8 1
   8        8        9 2
   9        9       10 1
  10       10       11 2
  11       11       12 1
  12       11       13 1
  13       13       14 2
  14       14       15 1
  15       15        6 1
  16       15       10 1
  17        4       16 1
  18       16        2 1
  19        2       17 1
  20        4       18 1
  21        1       19 1
  22        3       20 1
  23        3       21 1
  24        8       22 1
  25       13       23 1
  26       16       24 1
  27       16       25 1

@<TRIPOS>MOLECULE

  25   27
SMALL
USER_CHARGES
@<TRIPOS>ATOM
   1 O1           3.2298     1.3588     0.7805 O.3          1    LIG   0.0000
   2 C2           1.8754     1.7605     0.5913 C.3          1    LIG   0.0000
   3 C3           1.5147     2.1179    -0.8296 C.3          1    LIG   0.0000
   4 C4           0.5614     0.9416    -0.8872 C.3          1    LIG   0.0000
   5 O5          -0.7899     1.3550    -1.0512 O.3          1    LIG   0.0000
   6 C6          -1.4869     0.6990    -2.0032 C.2          1    LIG   0.0000
   7 N7          -1.3082    -0.6049    -2.1243 N.2          1    LIG   0.0000
   8 C8          -1.9924    -1.3158    -3.0750 C.2          1    LIG   0.0000
   9 N9          -2.8317    -0.6659    -3.8623 N.2          1    LIG   0.0000
  10 C10         -3.0269     0.6871    -3.7447 C.2          1    LIG   0.0000
  11 C11         -3.8088     1.5908    -4.3951 C.2          1    LIG   0.0000
  12 Br12        -5.0398     1.2087    -5.8724 Br           1    LIG   0.0000
  13 C13         -3.5706     2.8577    -3.8176 C.2          1    LIG   0.0000
  14 N14         -2.6844     2.6658    -2.8718 N.2          1    LIG   0.0000
  15 N15         -2.3536     1.3930    -2.8089 N.pl3        1    LIG   0.0000
  16 C16          0.8714     0.6221     0.5577 C.3          1    LIG   0.0000
  17 H            1.6056     2.4762     1.2354 H            1    LIG   0.0000
  18 H            0.8435     0.2263    -1.5266 H            1    LIG   0.0000
  19 H            3.3814     1.1415     1.7448 H            1    LIG   0.0000
  20 H            1.0699     3.0083    -0.9258 H            1    LIG   0.0000
  21 H            2.2784     2.0557    -1.4721 H            1    LIG   0.0000
  22 H           -1.8599    -2.3024    -3.1708 H            1    LIG   0.0000
  23 H           -3.9931     3.7258    -4.0781 H            1    LIG   0.0000
  24 H            1.2742    -0.2823     0.6989 H            1    LIG   0.0000
  25 H            0.0964     0.7423     1.1781 H            1    LIG   0.0000
@<TRIPOS>BOND
   1        1        2 1
   2        2        3 1
   3        3        4 1
   4        4        5 1
   5        5        6 1
   6        6        7 2
   7        7        8 1
   8        8        9 2
   9        9       10 1
  10       10       11 2
  11       11       12 1
  12       11       13 1
  13       13       14 2
  14       14       15 1
  15       15        6 1
  16       15       10 1
  17        4       16 1
  18       16        2 1
  19        2       17 1
  20        4       18 1
  21        1       19 1
  22        3       20 1
  23        3       21 1
  24        8       22 1
  25       13       23 1
  26       16       24 1
  27       16       25 1

@<TRIPOS>MOLECULE

  25   27
SMALL
USER_CHARGES
@<TRIPOS>ATOM
   1 O1           3.2298     1.3588     0.7805 O.3          1    LIG   0.0000
   2 C2           1.8754     1.7605     0.5913 C.3          1    LIG   0.0000
   3 C3           1.5147     2.1179    -0.8296 C.3          1    LIG   0.0000
   4 C4           0.5614     0.9416    -0.8872 C.3          1    LIG   0.0000
   5 O5          -0.7899     1.3550    -1.0512 O.3          1    LIG   0.0000
   6 C6          -1.4869     0.6990    -2.0032 C.2          1    LIG   0.0000
   7 N7          -2.3128     1.3938    -2.7661 N.2          1    LIG   0.0000
   8 C8          -3.0424     0.7741    -3.7464 C.2          1    LIG   0.0000
   9 N9          -2.8977    -0.5296    -3.9078 N.2          1    LIG   0.0000
  10 C10         -2.0421    -1.2610    -3.1233 C.2          1    LIG   0.0000
  11 C11         -1.6972    -2.5760    -3.0698 C.2          1    LIG   0.0000
  12 Br12        -2.3900    -4.0046    -4.2201 Br           1    LIG   0.0000
  13 C13         -0.7521    -2.7293    -2.0312 C.2          1    LIG   0.0000
  14 N14         -0.5734    -1.5351    -1.5226 N.2          1    LIG   0.0000
  15 N15         -1.3207    -0.6543    -2.1543 N.pl3        1    LIG   0.0000
  16 C16          0.8714     0.6221     0.5577 C.3          1    LIG   0.0000
  17 H            1.6056     2.4762     1.2354 H            1    LIG   0.0000
  18 H            0.8435     0.2263    -1.5266 H            1    LIG   0.0000
  19 H            3.3814     1.1415     1.7448 H            1    LIG   0.0000
  20 H            1.0699     3.0083    -0.9258 H            1    LIG   0.0000
  21 H            2.2784     2.0557    -1.4721 H            1    LIG   0.0000
  22 H           -3.6691     1.2955    -4.3255 H            1    LIG   0.0000
  23 H           -0.3089    -3.5779    -1.7425 H            1    LIG   0.0000
  24 H            1.2742    -0.2823     0.6989 H            1    LIG   0.0000
  25 H            0.0964     0.7423     1.1781 H            1    LIG   0.0000
@<TRIPOS>BOND
   1        1        2 1
   2        2        3 1
   3        3        4 1
   4        4        5 1
   5        5        6 1
   6        6        7 2
   7        7        8 1
   8        8        9 2
   9        9       10 1
  10       10       11 2
  11       11       12 1
  12       11       13 1
  13       13       14 2
  14       14       15 1
  15       15        6 1
  16       15       10 1
  17        4       16 1
  18       16        2 1
  19        2       17 1
  20        4       18 1
  21        1       19 1
  22        3       20 1
  23        3       21 1
  24        8       22 1
  25       13       23 1
  26       16       24 1
  27       16       25 1

