@<TRIPOS>MOLECULE
*****
 25 27 0 0 0
SMALL
USER_CHARGES

@<TRIPOS>ATOM
      1 O1          2.3167   -0.8147   -0.2209 O.3     1  LIG1        0.0000
      2 C2          1.3599    0.1206   -0.7023 C.3     1  LIG1        0.0000
      3 C3          1.5067    1.4487    0.0036 C.3     1  LIG1        0.0000
      4 C4          0.0006    1.5026   -0.0044 C.3     1  LIG1        0.0000
      5 O5         -0.5277    2.0521    1.1973 O.3     1  LIG1        0.0000
      6 C6         -0.7540    3.3828    1.1776 C.2     1  LIG1        0.0000
      7 N7         -1.2447    3.9513    2.2652 N.2     1  LIG1        0.0000
      8 C8         -1.4915    5.2987    2.2953 C.2     1  LIG1        0.0000
      9 N9         -1.2260    6.0102    1.2136 N.2     1  LIG1        0.0000
     10 C10        -0.7147    5.4315    0.0796 C.2     1  LIG1        0.0000
     11 C11        -0.3506    5.9046   -1.1430 C.2     1  LIG1        0.0000
     12 Br12       -0.4535    7.7682   -1.7432 Br      1  LIG1        0.0000
     13 C13         0.1113    4.8095   -1.9062 C.2     1  LIG1        0.0000
     14 N14         0.0102    3.7575   -1.1315 N.2     1  LIG1        0.0000
     15 N15        -0.4703    4.1024    0.0447 N.pl3   1  LIG1        0.0000
     16 C16         0.0498   -0.0113    0.0367 C.3     1  LIG1        0.0000
     17 H           1.2825    0.1748   -1.6978 H       1  LIG1        0.0000
     18 H          -0.3952    1.8809   -0.8411 H       1  LIG1        0.0000
     19 H           2.2025   -1.6850   -0.7000 H       1  LIG1        0.0000
     20 H           1.9223    1.4002    0.9118 H       1  LIG1        0.0000
     21 H           1.9573    2.1634   -0.5315 H       1  LIG1        0.0000
     22 H          -1.8634    5.7331    3.1156 H       1  LIG1        0.0000
     23 H           0.4476    4.8323   -2.8477 H       1  LIG1        0.0000
     24 H          -0.6778   -0.4719   -0.4717 H       1  LIG1        0.0000
     25 H           0.1189   -0.4074    0.9523 H       1  LIG1        0.0000
@<TRIPOS>BOND
     1     1     2    1
     2     2     3    1
     3     3     4    1
     4     4     5    1
     5     5     6    1
     6     6     7    2
     7     7     8    1
     8     8     9    2
     9     9    10    1
    10    10    11    2
    11    11    12    1
    12    11    13    1
    13    13    14    2
    14    14    15    1
    15    15     6    1
    16    15    10    1
    17     4    16    1
    18    16     2    1
    19     2    17    1
    20     4    18    1
    21     1    19    1
    22     3    20    1
    23     3    21    1
    24     8    22    1
    25    13    23    1
    26    16    24    1
    27    16    25    1
