@<TRIPOS>MOLECULE
*****
 25 27 0 0 0
SMALL
USER_CHARGES

@<TRIPOS>ATOM
      1 O1         -0.9719   -0.5570   -0.8439 O.3     1  LIG1        0.0000
      2 C2          0.0273    0.0043   -0.0027 C.3     1  LIG1        0.0000
      3 C3          1.3449    0.1305   -0.7247 C.3     1  LIG1        0.0000
      4 C4          1.5004    1.4418    0.0147 C.3     1  LIG1        0.0000
      5 O5          2.0884    2.4346   -0.8128 O.3     1  LIG1        0.0000
      6 C6          1.2832    3.4661   -1.1445 C.2     1  LIG1        0.0000
      7 N7          0.4736    3.9518   -0.2197 N.2     1  LIG1        0.0000
      8 C8         -0.3626    4.9985   -0.5068 C.2     1  LIG1        0.0000
      9 N9         -0.3368    5.5067   -1.7265 N.2     1  LIG1        0.0000
     10 C10         0.5006    5.0122   -2.6943 C.2     1  LIG1        0.0000
     11 C11         0.7375    5.3326   -3.9952 C.2     1  LIG1        0.0000
     12 Br12       -0.1396    6.7575   -5.0170 Br      1  LIG1        0.0000
     13 C13         1.7273    4.4495   -4.4807 C.2     1  LIG1        0.0000
     14 N14         2.0350    3.6619   -3.4797 N.2     1  LIG1        0.0000
     15 N15         1.3269    3.9791   -2.4160 N.pl3   1  LIG1        0.0000
     16 C16        -0.0101    1.5141   -0.0276 C.3     1  LIG1        0.0000
     17 H           0.0848   -0.4002    0.9101 H       1  LIG1        0.0000
     18 H           1.8948    1.3667    0.9306 H       1  LIG1        0.0000
     19 H          -1.8318   -0.6279   -0.3385 H       1  LIG1        0.0000
     20 H           2.0221   -0.5680   -0.4935 H       1  LIG1        0.0000
     21 H           1.2758    0.2116   -1.7191 H       1  LIG1        0.0000
     22 H          -0.9775    5.3688    0.1895 H       1  LIG1        0.0000
     23 H           2.1150    4.4295   -5.4022 H       1  LIG1        0.0000
     24 H          -0.3912    1.9139   -0.8612 H       1  LIG1        0.0000
     25 H          -0.4356    1.9398    0.7710 H       1  LIG1        0.0000
@<TRIPOS>BOND
     1     1     2    1
     2     2     3    1
     3     3     4    1
     4     4     5    1
     5     5     6    1
     6     6     7    2
     7     7     8    1
     8     8     9    2
     9     9    10    1
    10    10    11    2
    11    11    12    1
    12    11    13    1
    13    13    14    2
    14    14    15    1
    15    15     6    1
    16    15    10    1
    17     4    16    1
    18    16     2    1
    19     2    17    1
    20     4    18    1
    21     1    19    1
    22     3    20    1
    23     3    21    1
    24     8    22    1
    25    13    23    1
    26    16    24    1
    27    16    25    1
