@<TRIPOS>MOLECULE
*****
 25 27 0 0 0
SMALL
USER_CHARGES

@<TRIPOS>ATOM
      1 O1          2.3167   -0.8147   -0.2209 O.3     1  LIG1        0.0000
      2 C2          1.3599    0.1206   -0.7023 C.3     1  LIG1        0.0000
      3 C3          1.5067    1.4487    0.0036 C.3     1  LIG1        0.0000
      4 C4          0.0006    1.5026   -0.0044 C.3     1  LIG1        0.0000
      5 O5         -0.5277    2.0521    1.1973 O.3     1  LIG1        0.0000
      6 C6         -1.8595    2.2732    1.1989 C.2     1  LIG1        0.0000
      7 N7         -2.5466    1.9691    0.1116 N.2     1  LIG1        0.0000
      8 C8         -3.9004    2.1746    0.0637 C.2     1  LIG1        0.0000
      9 N9         -4.4968    2.6814    1.1286 N.2     1  LIG1        0.0000
     10 C10        -3.7944    2.9992    2.2635 C.2     1  LIG1        0.0000
     11 C11        -4.1364    3.5142    3.4755 C.2     1  LIG1        0.0000
     12 Br12       -5.9393    4.0260    4.0513 Br      1  LIG1        0.0000
     13 C13        -2.9566    3.6191    4.2450 C.2     1  LIG1        0.0000
     14 N14        -1.9860    3.1736    3.4858 N.2     1  LIG1        0.0000
     15 N15        -2.4585    2.7991    2.3153 N.pl3   1  LIG1        0.0000
     16 C16         0.0498   -0.0113    0.0367 C.3     1  LIG1        0.0000
     17 H           1.2825    0.1748   -1.6978 H       1  LIG1        0.0000
     18 H          -0.3952    1.8809   -0.8411 H       1  LIG1        0.0000
     19 H           2.2025   -1.6850   -0.7000 H       1  LIG1        0.0000
     20 H           1.9223    1.4002    0.9118 H       1  LIG1        0.0000
     21 H           1.9573    2.1634   -0.5315 H       1  LIG1        0.0000
     22 H          -4.4244    1.9467   -0.7570 H       1  LIG1        0.0000
     23 H          -2.8779    3.9638    5.1804 H       1  LIG1        0.0000
     24 H          -0.6778   -0.4719   -0.4717 H       1  LIG1        0.0000
     25 H           0.1189   -0.4074    0.9523 H       1  LIG1        0.0000
@<TRIPOS>BOND
     1     1     2    1
     2     2     3    1
     3     3     4    1
     4     4     5    1
     5     5     6    1
     6     6     7    2
     7     7     8    1
     8     8     9    2
     9     9    10    1
    10    10    11    2
    11    11    12    1
    12    11    13    1
    13    13    14    2
    14    14    15    1
    15    15     6    1
    16    15    10    1
    17     4    16    1
    18    16     2    1
    19     2    17    1
    20     4    18    1
    21     1    19    1
    22     3    20    1
    23     3    21    1
    24     8    22    1
    25    13    23    1
    26    16    24    1
    27    16    25    1
