@<TRIPOS>MOLECULE
*****
 25 27 0 0 0
SMALL
USER_CHARGES

@<TRIPOS>ATOM
      1 O1          3.2298    1.3588    0.7805 O.3     1  LIG1        0.0000
      2 C2          1.8754    1.7605    0.5913 C.3     1  LIG1        0.0000
      3 C3          1.5147    2.1179   -0.8296 C.3     1  LIG1        0.0000
      4 C4          0.5614    0.9416   -0.8872 C.3     1  LIG1        0.0000
      5 O5         -0.7899    1.3550   -1.0512 O.3     1  LIG1        0.0000
      6 C6         -1.4869    0.6990   -2.0032 C.2     1  LIG1        0.0000
      7 N7         -1.3082   -0.6049   -2.1243 N.2     1  LIG1        0.0000
      8 C8         -1.9924   -1.3158   -3.0750 C.2     1  LIG1        0.0000
      9 N9         -2.8317   -0.6659   -3.8623 N.2     1  LIG1        0.0000
     10 C10        -3.0269    0.6871   -3.7447 C.2     1  LIG1        0.0000
     11 C11        -3.8088    1.5908   -4.3951 C.2     1  LIG1        0.0000
     12 Br12       -5.0398    1.2087   -5.8724 Br      1  LIG1        0.0000
     13 C13        -3.5706    2.8577   -3.8176 C.2     1  LIG1        0.0000
     14 N14        -2.6844    2.6658   -2.8718 N.2     1  LIG1        0.0000
     15 N15        -2.3536    1.3930   -2.8089 N.pl3   1  LIG1        0.0000
     16 C16         0.8714    0.6221    0.5577 C.3     1  LIG1        0.0000
     17 H           1.6056    2.4762    1.2354 H       1  LIG1        0.0000
     18 H           0.8435    0.2263   -1.5266 H       1  LIG1        0.0000
     19 H           3.3814    1.1415    1.7448 H       1  LIG1        0.0000
     20 H           1.0699    3.0083   -0.9258 H       1  LIG1        0.0000
     21 H           2.2784    2.0557   -1.4721 H       1  LIG1        0.0000
     22 H          -1.8599   -2.3024   -3.1708 H       1  LIG1        0.0000
     23 H          -3.9931    3.7258   -4.0781 H       1  LIG1        0.0000
     24 H           1.2742   -0.2823    0.6989 H       1  LIG1        0.0000
     25 H           0.0964    0.7423    1.1781 H       1  LIG1        0.0000
@<TRIPOS>BOND
     1     1     2    1
     2     2     3    1
     3     3     4    1
     4     4     5    1
     5     5     6    1
     6     6     7    2
     7     7     8    1
     8     8     9    2
     9     9    10    1
    10    10    11    2
    11    11    12    1
    12    11    13    1
    13    13    14    2
    14    14    15    1
    15    15     6    1
    16    15    10    1
    17     4    16    1
    18    16     2    1
    19     2    17    1
    20     4    18    1
    21     1    19    1
    22     3    20    1
    23     3    21    1
    24     8    22    1
    25    13    23    1
    26    16    24    1
    27    16    25    1
