@<TRIPOS>MOLECULE
*****
 25 27 0 0 0
SMALL
USER_CHARGES

@<TRIPOS>ATOM
      1 O1         -0.9719   -0.5570   -0.8439 O.3     1  LIG1        0.0000
      2 C2          0.0273    0.0043   -0.0027 C.3     1  LIG1        0.0000
      3 C3          1.3449    0.1305   -0.7247 C.3     1  LIG1        0.0000
      4 C4          1.5004    1.4418    0.0147 C.3     1  LIG1        0.0000
      5 O5          2.0884    2.4346   -0.8128 O.3     1  LIG1        0.0000
      6 C6          2.1260    3.6789   -0.2906 C.2     1  LIG1        0.0000
      7 N7          1.6250    3.8667    0.9179 N.2     1  LIG1        0.0000
      8 C8          1.6397    5.1109    1.4917 C.2     1  LIG1        0.0000
      9 N9          2.1664    6.1117    0.8079 N.2     1  LIG1        0.0000
     10 C10         2.6911    5.9284   -0.4465 C.2     1  LIG1        0.0000
     11 C11         3.2852    6.7503   -1.3535 C.2     1  LIG1        0.0000
     12 Br12        3.6159    8.6706   -1.1367 Br      1  LIG1        0.0000
     13 C13         3.6176    5.9717   -2.4842 C.2     1  LIG1        0.0000
     14 N14         3.2229    4.7517   -2.2148 N.2     1  LIG1        0.0000
     15 N15         2.6782    4.7031   -1.0171 N.pl3   1  LIG1        0.0000
     16 C16        -0.0101    1.5141   -0.0276 C.3     1  LIG1        0.0000
     17 H           0.0848   -0.4002    0.9101 H       1  LIG1        0.0000
     18 H           1.8948    1.3667    0.9306 H       1  LIG1        0.0000
     19 H          -1.8318   -0.6279   -0.3385 H       1  LIG1        0.0000
     20 H           2.0221   -0.5680   -0.4935 H       1  LIG1        0.0000
     21 H           1.2758    0.2116   -1.7191 H       1  LIG1        0.0000
     22 H           1.2612    5.2580    2.4055 H       1  LIG1        0.0000
     23 H           4.0640    6.2878   -3.3213 H       1  LIG1        0.0000
     24 H          -0.3912    1.9139   -0.8612 H       1  LIG1        0.0000
     25 H          -0.4356    1.9398    0.7710 H       1  LIG1        0.0000
@<TRIPOS>BOND
     1     1     2    1
     2     2     3    1
     3     3     4    1
     4     4     5    1
     5     5     6    1
     6     6     7    2
     7     7     8    1
     8     8     9    2
     9     9    10    1
    10    10    11    2
    11    11    12    1
    12    11    13    1
    13    13    14    2
    14    14    15    1
    15    15     6    1
    16    15    10    1
    17     4    16    1
    18    16     2    1
    19     2    17    1
    20     4    18    1
    21     1    19    1
    22     3    20    1
    23     3    21    1
    24     8    22    1
    25    13    23    1
    26    16    24    1
    27    16    25    1
