@<TRIPOS>MOLECULE

  28   29
SMALL
USER_CHARGES
@<TRIPOS>ATOM
   1 C1          -1.1229    -0.1220     1.0044 C.3          1    LIG   0.0000
   2 C2           0.3887    -0.2817     1.0051 C.3          1    LIG   0.0000
   3 O3           1.0000     1.0000     1.0000 O.3          1    LIG   0.0000
   4 C4           2.3502     1.0000     1.0000 C.ar         1    LIG   0.0000
   5 C5           3.0137    -0.2224     1.0046 C.ar         1    LIG   0.0000
   6 C6           4.4044    -0.2468     1.0043 C.ar         1    LIG   0.0000
   7 C7           5.1214     0.9462     0.9997 C.ar         1    LIG   0.0000
   8 N8           6.5217     0.9220     0.9994 N.2          1    LIG   1.0000
   9 O9           7.1085    -0.1362     1.0032 O.co2        1    LIG   0.0000
  10 O10          7.1499     1.9678     0.9954 O.co2        1    LIG  -1.0000
  11 C11          4.4582     2.1689     0.9949 C.ar         1    LIG   0.0000
  12 C12          3.0669     2.1931     0.9953 C.ar         1    LIG   0.0000
  13 C13          2.3900     3.4744     0.9904 C.2          1    LIG   0.0000
  14 C14          2.9728     4.7013     0.9886 C.2          1    LIG   0.0000
  15 C15          2.0349     5.7676     0.9825 C.2          1    LIG   0.0000
  16 C16          0.7133     5.4361     0.9784 C.2          1    LIG   0.0000
  17 S17          0.7049     3.7288     0.9897 S.3          1    LIG   0.0000
  18 H           -1.5534    -1.0246     1.0080 H            1    LIG   0.0000
  19 H           -1.4049     0.3850     1.8189 H            1    LIG   0.0000
  20 H           -1.4049     0.3786     0.1860 H            1    LIG   0.0000
  21 H            0.6707    -0.7822     1.8236 H            1    LIG   0.0000
  22 H            0.6707    -0.7887     0.1906 H            1    LIG   0.0000
  23 H            2.4949    -1.0773     1.0081 H            1    LIG   0.0000
  24 H            4.8891    -1.1215     1.0073 H            1    LIG   0.0000
  25 H            4.9771     3.0237     0.9913 H            1    LIG   0.0000
  26 H            3.9632     4.8398     0.9912 H            1    LIG   0.0000
  27 H            2.3321     6.7224     0.9813 H            1    LIG   0.0000
  28 H           -0.0736     6.0531     0.9705 H            1    LIG   0.0000
@<TRIPOS>BOND
   1        1        2 1
   2        2        3 1
   3        3        4 1
   4        4        5 ar
   5        5        6 ar
   6        6        7 ar
   7        7        8 1
   8        8        9 ar
   9        8       10 ar
  10        7       11 ar
  11       11       12 ar
  12       12        4 ar
  13       12       13 1
  14       13       14 2
  15       14       15 1
  16       15       16 2
  17       16       17 1
  18       17       13 1
  19        1       18 1
  20        1       19 1
  21        1       20 1
  22        2       21 1
  23        2       22 1
  24        5       23 1
  25        6       24 1
  26       11       25 1
  27       14       26 1
  28       15       27 1
  29       16       28 1

@<TRIPOS>MOLECULE

  28   29
SMALL
USER_CHARGES
@<TRIPOS>ATOM
   1 C1           0.3952    -0.8405     2.4186 C.3          1    LIG   0.0000
   2 C2           0.3887    -0.2817     1.0051 C.3          1    LIG   0.0000
   3 O3           1.0000     1.0000     1.0000 O.3          1    LIG   0.0000
   4 C4           2.3502     1.0000     1.0000 C.ar         1    LIG   0.0000
   5 C5           3.0137    -0.2224     1.0046 C.ar         1    LIG   0.0000
   6 C6           4.4044    -0.2468     1.0043 C.ar         1    LIG   0.0000
   7 C7           5.1214     0.9462     0.9997 C.ar         1    LIG   0.0000
   8 N8           6.5217     0.9220     0.9994 N.2          1    LIG   1.0000
   9 O9           7.1085    -0.1362     1.0032 O.co2        1    LIG   0.0000
  10 O10          7.1499     1.9678     0.9954 O.co2        1    LIG  -1.0000
  11 C11          4.4582     2.1689     0.9949 C.ar         1    LIG   0.0000
  12 C12          3.0669     2.1931     0.9953 C.ar         1    LIG   0.0000
  13 C13          2.3900     3.4744     0.9904 C.2          1    LIG   0.0000
  14 C14          2.4938     4.4446     0.0455 C.2          1    LIG   0.0000
  15 C15          1.7007     5.5886     0.3270 C.2          1    LIG   0.0000
  16 C16          0.9600     5.5683     1.4704 C.2          1    LIG   0.0000
  17 S17          1.3112     4.0536     2.1758 S.3          1    LIG   0.0000
  18 H           -0.0354    -1.7431     2.4222 H            1    LIG   0.0000
  19 H            1.3383    -0.9198     2.7414 H            1    LIG   0.0000
  20 H           -0.1132    -0.2263     3.0222 H            1    LIG   0.0000
  21 H            0.8970    -0.8958     0.4015 H            1    LIG   0.0000
  22 H           -0.5545    -0.2024     0.6823 H            1    LIG   0.0000
  23 H            2.4949    -1.0773     1.0081 H            1    LIG   0.0000
  24 H            4.8891    -1.1215     1.0073 H            1    LIG   0.0000
  25 H            4.9771     3.0237     0.9913 H            1    LIG   0.0000
  26 H            3.0708     4.3617    -0.7670 H            1    LIG   0.0000
  27 H            1.6864     6.3765    -0.2887 H            1    LIG   0.0000
  28 H            0.3491     6.2796     1.8179 H            1    LIG   0.0000
@<TRIPOS>BOND
   1        1        2 1
   2        2        3 1
   3        3        4 1
   4        4        5 ar
   5        5        6 ar
   6        6        7 ar
   7        7        8 1
   8        8        9 ar
   9        8       10 ar
  10        7       11 ar
  11       11       12 ar
  12       12        4 ar
  13       12       13 1
  14       13       14 2
  15       14       15 1
  16       15       16 2
  17       16       17 1
  18       17       13 1
  19        1       18 1
  20        1       19 1
  21        1       20 1
  22        2       21 1
  23        2       22 1
  24        5       23 1
  25        6       24 1
  26       11       25 1
  27       14       26 1
  28       15       27 1
  29       16       28 1

@<TRIPOS>MOLECULE

  28   29
SMALL
USER_CHARGES
@<TRIPOS>ATOM
   1 C1           0.3952    -0.8517    -0.4040 C.3          1    LIG   0.0000
   2 C2           0.3887    -0.2817     1.0051 C.3          1    LIG   0.0000
   3 O3           1.0000     1.0000     1.0000 O.3          1    LIG   0.0000
   4 C4           2.3502     1.0000     1.0000 C.ar         1    LIG   0.0000
   5 C5           3.0137    -0.2224     1.0046 C.ar         1    LIG   0.0000
   6 C6           4.4044    -0.2468     1.0043 C.ar         1    LIG   0.0000
   7 C7           5.1214     0.9462     0.9997 C.ar         1    LIG   0.0000
   8 N8           6.5217     0.9220     0.9994 N.2          1    LIG   1.0000
   9 O9           7.1085    -0.1362     1.0032 O.co2        1    LIG   0.0000
  10 O10          7.1499     1.9678     0.9954 O.co2        1    LIG  -1.0000
  11 C11          4.4582     2.1689     0.9949 C.ar         1    LIG   0.0000
  12 C12          3.0669     2.1931     0.9953 C.ar         1    LIG   0.0000
  13 C13          2.3900     3.4744     0.9904 C.2          1    LIG   0.0000
  14 C14          2.4938     4.4446     0.0455 C.2          1    LIG   0.0000
  15 C15          1.7007     5.5886     0.3270 C.2          1    LIG   0.0000
  16 C16          0.9600     5.5683     1.4704 C.2          1    LIG   0.0000
  17 S17          1.3112     4.0536     2.1758 S.3          1    LIG   0.0000
  18 H           -0.0354    -1.7543    -0.4004 H            1    LIG   0.0000
  19 H           -0.1132    -0.2423    -1.0124 H            1    LIG   0.0000
  20 H            1.3383    -0.9335    -0.7261 H            1    LIG   0.0000
  21 H           -0.5545    -0.1998     1.3272 H            1    LIG   0.0000
  22 H            0.8970    -0.8911     1.6135 H            1    LIG   0.0000
  23 H            2.4949    -1.0773     1.0081 H            1    LIG   0.0000
  24 H            4.8891    -1.1215     1.0073 H            1    LIG   0.0000
  25 H            4.9771     3.0237     0.9913 H            1    LIG   0.0000
  26 H            3.0708     4.3617    -0.7670 H            1    LIG   0.0000
  27 H            1.6864     6.3765    -0.2887 H            1    LIG   0.0000
  28 H            0.3491     6.2796     1.8179 H            1    LIG   0.0000
@<TRIPOS>BOND
   1        1        2 1
   2        2        3 1
   3        3        4 1
   4        4        5 ar
   5        5        6 ar
   6        6        7 ar
   7        7        8 1
   8        8        9 ar
   9        8       10 ar
  10        7       11 ar
  11       11       12 ar
  12       12        4 ar
  13       12       13 1
  14       13       14 2
  15       14       15 1
  16       15       16 2
  17       16       17 1
  18       17       13 1
  19        1       18 1
  20        1       19 1
  21        1       20 1
  22        2       21 1
  23        2       22 1
  24        5       23 1
  25        6       24 1
  26       11       25 1
  27       14       26 1
  28       15       27 1
  29       16       28 1

@<TRIPOS>MOLECULE

  28   29
SMALL
USER_CHARGES
@<TRIPOS>ATOM
   1 C1           0.3952    -0.8405     2.4186 C.3          1    LIG   0.0000
   2 C2           0.3887    -0.2817     1.0051 C.3          1    LIG   0.0000
   3 O3           1.0000     1.0000     1.0000 O.3          1    LIG   0.0000
   4 C4           2.3502     1.0000     1.0000 C.ar         1    LIG   0.0000
   5 C5           3.0137    -0.2224     1.0046 C.ar         1    LIG   0.0000
   6 C6           4.4044    -0.2468     1.0043 C.ar         1    LIG   0.0000
   7 C7           5.1214     0.9462     0.9997 C.ar         1    LIG   0.0000
   8 N8           6.5217     0.9220     0.9994 N.2          1    LIG   1.0000
   9 O9           7.1085    -0.1362     1.0032 O.co2        1    LIG   0.0000
  10 O10          7.1499     1.9678     0.9954 O.co2        1    LIG  -1.0000
  11 C11          4.4582     2.1689     0.9949 C.ar         1    LIG   0.0000
  12 C12          3.0669     2.1931     0.9953 C.ar         1    LIG   0.0000
  13 C13          2.3900     3.4744     0.9904 C.2          1    LIG   0.0000
  14 C14          2.4895     4.4495     1.9308 C.2          1    LIG   0.0000
  15 C15          1.6996     5.5929     1.6386 C.2          1    LIG   0.0000
  16 C16          0.9672     5.5684     0.4899 C.2          1    LIG   0.0000
  17 S17          1.3109     4.0445    -0.1991 S.3          1    LIG   0.0000
  18 H           -0.0354    -1.7431     2.4222 H            1    LIG   0.0000
  19 H            1.3383    -0.9198     2.7414 H            1    LIG   0.0000
  20 H           -0.1132    -0.2263     3.0222 H            1    LIG   0.0000
  21 H            0.8970    -0.8958     0.4015 H            1    LIG   0.0000
  22 H           -0.5545    -0.2024     0.6823 H            1    LIG   0.0000
  23 H            2.4949    -1.0773     1.0081 H            1    LIG   0.0000
  24 H            4.8891    -1.1215     1.0073 H            1    LIG   0.0000
  25 H            4.9771     3.0237     0.9913 H            1    LIG   0.0000
  26 H            3.0617     4.3702     2.7471 H            1    LIG   0.0000
  27 H            1.6816     6.3835     2.2507 H            1    LIG   0.0000
  28 H            0.3647     6.2815     0.1315 H            1    LIG   0.0000
@<TRIPOS>BOND
   1        1        2 1
   2        2        3 1
   3        3        4 1
   4        4        5 ar
   5        5        6 ar
   6        6        7 ar
   7        7        8 1
   8        8        9 ar
   9        8       10 ar
  10        7       11 ar
  11       11       12 ar
  12       12        4 ar
  13       12       13 1
  14       13       14 2
  15       14       15 1
  16       15       16 2
  17       16       17 1
  18       17       13 1
  19        1       18 1
  20        1       19 1
  21        1       20 1
  22        2       21 1
  23        2       22 1
  24        5       23 1
  25        6       24 1
  26       11       25 1
  27       14       26 1
  28       15       27 1
  29       16       28 1

@<TRIPOS>MOLECULE

  28   29
SMALL
USER_CHARGES
@<TRIPOS>ATOM
   1 C1           0.3952    -0.8517    -0.4040 C.3          1    LIG   0.0000
   2 C2           0.3887    -0.2817     1.0051 C.3          1    LIG   0.0000
   3 O3           1.0000     1.0000     1.0000 O.3          1    LIG   0.0000
   4 C4           2.3502     1.0000     1.0000 C.ar         1    LIG   0.0000
   5 C5           3.0137    -0.2224     1.0046 C.ar         1    LIG   0.0000
   6 C6           4.4044    -0.2468     1.0043 C.ar         1    LIG   0.0000
   7 C7           5.1214     0.9462     0.9997 C.ar         1    LIG   0.0000
   8 N8           6.5217     0.9220     0.9994 N.2          1    LIG   1.0000
   9 O9           7.1085    -0.1362     1.0032 O.co2        1    LIG   0.0000
  10 O10          7.1499     1.9678     0.9954 O.co2        1    LIG  -1.0000
  11 C11          4.4582     2.1689     0.9949 C.ar         1    LIG   0.0000
  12 C12          3.0669     2.1931     0.9953 C.ar         1    LIG   0.0000
  13 C13          2.3900     3.4744     0.9904 C.2          1    LIG   0.0000
  14 C14          2.4895     4.4495     1.9308 C.2          1    LIG   0.0000
  15 C15          1.6996     5.5929     1.6386 C.2          1    LIG   0.0000
  16 C16          0.9672     5.5684     0.4899 C.2          1    LIG   0.0000
  17 S17          1.3109     4.0445    -0.1991 S.3          1    LIG   0.0000
  18 H           -0.0354    -1.7543    -0.4004 H            1    LIG   0.0000
  19 H           -0.1132    -0.2423    -1.0124 H            1    LIG   0.0000
  20 H            1.3383    -0.9335    -0.7261 H            1    LIG   0.0000
  21 H           -0.5545    -0.1998     1.3272 H            1    LIG   0.0000
  22 H            0.8970    -0.8911     1.6135 H            1    LIG   0.0000
  23 H            2.4949    -1.0773     1.0081 H            1    LIG   0.0000
  24 H            4.8891    -1.1215     1.0073 H            1    LIG   0.0000
  25 H            4.9771     3.0237     0.9913 H            1    LIG   0.0000
  26 H            3.0617     4.3702     2.7471 H            1    LIG   0.0000
  27 H            1.6816     6.3835     2.2507 H            1    LIG   0.0000
  28 H            0.3647     6.2815     0.1315 H            1    LIG   0.0000
@<TRIPOS>BOND
   1        1        2 1
   2        2        3 1
   3        3        4 1
   4        4        5 ar
   5        5        6 ar
   6        6        7 ar
   7        7        8 1
   8        8        9 ar
   9        8       10 ar
  10        7       11 ar
  11       11       12 ar
  12       12        4 ar
  13       12       13 1
  14       13       14 2
  15       14       15 1
  16       15       16 2
  17       16       17 1
  18       17       13 1
  19        1       18 1
  20        1       19 1
  21        1       20 1
  22        2       21 1
  23        2       22 1
  24        5       23 1
  25        6       24 1
  26       11       25 1
  27       14       26 1
  28       15       27 1
  29       16       28 1

@<TRIPOS>MOLECULE

  28   29
SMALL
USER_CHARGES
@<TRIPOS>ATOM
   1 C1          -1.1229    -0.1220     1.0044 C.3          1    LIG   0.0000
   2 C2           0.3887    -0.2817     1.0051 C.3          1    LIG   0.0000
   3 O3           1.0000     1.0000     1.0000 O.3          1    LIG   0.0000
   4 C4           2.3502     1.0000     1.0000 C.ar         1    LIG   0.0000
   5 C5           3.0137    -0.2224     1.0046 C.ar         1    LIG   0.0000
   6 C6           4.4044    -0.2468     1.0043 C.ar         1    LIG   0.0000
   7 C7           5.1214     0.9462     0.9997 C.ar         1    LIG   0.0000
   8 N8           6.5217     0.9220     0.9994 N.2          1    LIG   1.0000
   9 O9           7.1085    -0.1362     1.0032 O.co2        1    LIG   0.0000
  10 O10          7.1499     1.9678     0.9954 O.co2        1    LIG  -1.0000
  11 C11          4.4582     2.1689     0.9949 C.ar         1    LIG   0.0000
  12 C12          3.0669     2.1931     0.9953 C.ar         1    LIG   0.0000
  13 C13          2.3900     3.4744     0.9904 C.2          1    LIG   0.0000
  14 C14          1.0480     3.6844     0.9869 C.2          1    LIG   0.0000
  15 C15          0.6958     5.0602     0.9837 C.2          1    LIG   0.0000
  16 C16          1.7144     5.9650     0.9857 C.2          1    LIG   0.0000
  17 S17          3.1296     5.0098     0.9844 S.3          1    LIG   0.0000
  18 H           -1.5534    -1.0246     1.0080 H            1    LIG   0.0000
  19 H           -1.4049     0.3850     1.8189 H            1    LIG   0.0000
  20 H           -1.4049     0.3786     0.1860 H            1    LIG   0.0000
  21 H            0.6707    -0.7822     1.8236 H            1    LIG   0.0000
  22 H            0.6707    -0.7887     0.1906 H            1    LIG   0.0000
  23 H            2.4949    -1.0773     1.0081 H            1    LIG   0.0000
  24 H            4.8891    -1.1215     1.0073 H            1    LIG   0.0000
  25 H            4.9771     3.0237     0.9913 H            1    LIG   0.0000
  26 H            0.3754     2.9444     0.9865 H            1    LIG   0.0000
  27 H           -0.2605     5.3527     0.9802 H            1    LIG   0.0000
  28 H            1.6482     6.9628     0.9874 H            1    LIG   0.0000
@<TRIPOS>BOND
   1        1        2 1
   2        2        3 1
   3        3        4 1
   4        4        5 ar
   5        5        6 ar
   6        6        7 ar
   7        7        8 1
   8        8        9 ar
   9        8       10 ar
  10        7       11 ar
  11       11       12 ar
  12       12        4 ar
  13       12       13 1
  14       13       14 2
  15       14       15 1
  16       15       16 2
  17       16       17 1
  18       17       13 1
  19        1       18 1
  20        1       19 1
  21        1       20 1
  22        2       21 1
  23        2       22 1
  24        5       23 1
  25        6       24 1
  26       11       25 1
  27       14       26 1
  28       15       27 1
  29       16       28 1

@<TRIPOS>MOLECULE

  28   29
SMALL
USER_CHARGES
@<TRIPOS>ATOM
   1 C1           1.0020    -1.1312     2.1062 C.3          1    LIG   0.0000
   2 C2           0.3887    -0.2817     1.0051 C.3          1    LIG   0.0000
   3 O3           1.0000     1.0000     1.0000 O.3          1    LIG   0.0000
   4 C4           2.3502     1.0000     1.0000 C.ar         1    LIG   0.0000
   5 C5           3.0137    -0.1098     0.4876 C.ar         1    LIG   0.0000
   6 C6           4.4044    -0.1318     0.4770 C.ar         1    LIG   0.0000
   7 C7           5.1214     0.9514     0.9770 C.ar         1    LIG   0.0000
   8 N8           6.5217     0.9295     0.9665 N.2          1    LIG   1.0000
   9 O9           7.1085    -0.0311     0.5227 O.co2        1    LIG   0.0000
  10 O10          7.1499     1.8791     1.4048 O.co2        1    LIG  -1.0000
  11 C11          4.4582     2.0615     1.4894 C.ar         1    LIG   0.0000
  12 C12          3.0669     2.0833     1.4999 C.ar         1    LIG   0.0000
  13 C13          2.3900     3.2466     2.0370 C.2          1    LIG   0.0000
  14 C14          1.0480     3.4384     2.1226 C.2          1    LIG   0.0000
  15 C15          0.6958     4.6866     2.7011 C.2          1    LIG   0.0000
  16 C16          1.7144     5.5059     3.0853 C.2          1    LIG   0.0000
  17 S17          3.1296     4.6407     2.6805 S.3          1    LIG   0.0000
  18 H            0.5715    -2.0338     2.1098 H            1    LIG   0.0000
  19 H            1.9835    -1.2307     1.9429 H            1    LIG   0.0000
  20 H            0.8544    -0.6880     2.9904 H            1    LIG   0.0000
  21 H            0.5362    -0.7248     0.1209 H            1    LIG   0.0000
  22 H           -0.5929    -0.1822     1.1684 H            1    LIG   0.0000
  23 H            2.4949    -0.8861     0.1295 H            1    LIG   0.0000
  24 H            4.8891    -0.9258     0.1101 H            1    LIG   0.0000
  25 H            4.9771     2.8378     1.8474 H            1    LIG   0.0000
  26 H            0.3754     2.7679     1.8095 H            1    LIG   0.0000
  27 H           -0.2605     4.9533     2.8216 H            1    LIG   0.0000
  28 H            1.6482     6.4095     3.5086 H            1    LIG   0.0000
@<TRIPOS>BOND
   1        1        2 1
   2        2        3 1
   3        3        4 1
   4        4        5 ar
   5        5        6 ar
   6        6        7 ar
   7        7        8 1
   8        8        9 ar
   9        8       10 ar
  10        7       11 ar
  11       11       12 ar
  12       12        4 ar
  13       12       13 1
  14       13       14 2
  15       14       15 1
  16       15       16 2
  17       16       17 1
  18       17       13 1
  19        1       18 1
  20        1       19 1
  21        1       20 1
  22        2       21 1
  23        2       22 1
  24        5       23 1
  25        6       24 1
  26       11       25 1
  27       14       26 1
  28       15       27 1
  29       16       28 1

@<TRIPOS>MOLECULE

  28   29
SMALL
USER_CHARGES
@<TRIPOS>ATOM
   1 C1          -0.2718    -0.5333    -0.3406 C.3          1    LIG   0.0000
   2 C2           0.3887    -0.2817     1.0051 C.3          1    LIG   0.0000
   3 O3           1.0000     1.0000     1.0000 O.3          1    LIG   0.0000
   4 C4           2.3502     1.0000     1.0000 C.ar         1    LIG   0.0000
   5 C5           3.0137    -0.1098     0.4876 C.ar         1    LIG   0.0000
   6 C6           4.4044    -0.1318     0.4770 C.ar         1    LIG   0.0000
   7 C7           5.1214     0.9514     0.9770 C.ar         1    LIG   0.0000
   8 N8           6.5217     0.9295     0.9665 N.2          1    LIG   1.0000
   9 O9           7.1085    -0.0311     0.5227 O.co2        1    LIG   0.0000
  10 O10          7.1499     1.8791     1.4048 O.co2        1    LIG  -1.0000
  11 C11          4.4582     2.0615     1.4894 C.ar         1    LIG   0.0000
  12 C12          3.0669     2.0833     1.4999 C.ar         1    LIG   0.0000
  13 C13          2.3900     3.2466     2.0370 C.2          1    LIG   0.0000
  14 C14          1.5271     3.2725     3.0857 C.2          1    LIG   0.0000
  15 C15          1.0300     4.5719     3.3709 C.2          1    LIG   0.0000
  16 C16          1.4677     5.5941     2.5834 C.2          1    LIG   0.0000
  17 S17          2.5232     4.8476     1.4682 S.3          1    LIG   0.0000
  18 H           -0.7024    -1.4359    -0.3370 H            1    LIG   0.0000
  19 H           -0.9664     0.1666    -0.5071 H            1    LIG   0.0000
  20 H            0.4187    -0.4962    -1.0630 H            1    LIG   0.0000
  21 H           -0.3018    -0.3188     1.7275 H            1    LIG   0.0000
  22 H            1.0832    -0.9816     1.1716 H            1    LIG   0.0000
  23 H            2.4949    -0.8861     0.1295 H            1    LIG   0.0000
  24 H            4.8891    -0.9258     0.1101 H            1    LIG   0.0000
  25 H            4.9771     2.8378     1.8474 H            1    LIG   0.0000
  26 H            1.2678     2.4582     3.6050 H            1    LIG   0.0000
  27 H            0.3853     4.7301     4.1187 H            1    LIG   0.0000
  28 H            1.2256     6.5624     2.6448 H            1    LIG   0.0000
@<TRIPOS>BOND
   1        1        2 1
   2        2        3 1
   3        3        4 1
   4        4        5 ar
   5        5        6 ar
   6        6        7 ar
   7        7        8 1
   8        8        9 ar
   9        8       10 ar
  10        7       11 ar
  11       11       12 ar
  12       12        4 ar
  13       12       13 1
  14       13       14 2
  15       14       15 1
  16       15       16 2
  17       16       17 1
  18       17       13 1
  19        1       18 1
  20        1       19 1
  21        1       20 1
  22        2       21 1
  23        2       22 1
  24        5       23 1
  25        6       24 1
  26       11       25 1
  27       14       26 1
  28       15       27 1
  29       16       28 1

@<TRIPOS>MOLECULE

  28   29
SMALL
USER_CHARGES
@<TRIPOS>ATOM
   1 C1          -1.1229    -0.1220     1.0044 C.3          1    LIG   0.0000
   2 C2           0.3887    -0.2817     1.0051 C.3          1    LIG   0.0000
   3 O3           1.0000     1.0000     1.0000 O.3          1    LIG   0.0000
   4 C4           2.3502     1.0000     1.0000 C.ar         1    LIG   0.0000
   5 C5           3.0137    -0.1098     0.4876 C.ar         1    LIG   0.0000
   6 C6           4.4044    -0.1318     0.4770 C.ar         1    LIG   0.0000
   7 C7           5.1214     0.9514     0.9770 C.ar         1    LIG   0.0000
   8 N8           6.5217     0.9295     0.9665 N.2          1    LIG   1.0000
   9 O9           7.1085    -0.0311     0.5227 O.co2        1    LIG   0.0000
  10 O10          7.1499     1.8791     1.4048 O.co2        1    LIG  -1.0000
  11 C11          4.4582     2.0615     1.4894 C.ar         1    LIG   0.0000
  12 C12          3.0669     2.0833     1.4999 C.ar         1    LIG   0.0000
  13 C13          2.3900     3.2466     2.0370 C.2          1    LIG   0.0000
  14 C14          1.5313     4.0648     1.3750 C.2          1    LIG   0.0000
  15 C15          1.0311     5.1222     2.1803 C.2          1    LIG   0.0000
  16 C16          1.4606     5.1796     3.4721 C.2          1    LIG   0.0000
  17 S17          2.5236     3.8522     3.6244 S.3          1    LIG   0.0000
  18 H           -1.5534    -1.0246     1.0080 H            1    LIG   0.0000
  19 H           -1.4049     0.3850     1.8189 H            1    LIG   0.0000
  20 H           -1.4049     0.3786     0.1860 H            1    LIG   0.0000
  21 H            0.6707    -0.7822     1.8236 H            1    LIG   0.0000
  22 H            0.6707    -0.7887     0.1906 H            1    LIG   0.0000
  23 H            2.4949    -0.8861     0.1295 H            1    LIG   0.0000
  24 H            4.8891    -0.9258     0.1101 H            1    LIG   0.0000
  25 H            4.9771     2.8378     1.8474 H            1    LIG   0.0000
  26 H            1.2769     3.9356     0.4166 H            1    LIG   0.0000
  27 H            0.3901     5.7969     1.8143 H            1    LIG   0.0000
  28 H            1.2099     5.8479     4.1725 H            1    LIG   0.0000
@<TRIPOS>BOND
   1        1        2 1
   2        2        3 1
   3        3        4 1
   4        4        5 ar
   5        5        6 ar
   6        6        7 ar
   7        7        8 1
   8        8        9 ar
   9        8       10 ar
  10        7       11 ar
  11       11       12 ar
  12       12        4 ar
  13       12       13 1
  14       13       14 2
  15       14       15 1
  16       15       16 2
  17       16       17 1
  18       17       13 1
  19        1       18 1
  20        1       19 1
  21        1       20 1
  22        2       21 1
  23        2       22 1
  24        5       23 1
  25        6       24 1
  26       11       25 1
  27       14       26 1
  28       15       27 1
  29       16       28 1

@<TRIPOS>MOLECULE

  28   29
SMALL
USER_CHARGES
@<TRIPOS>ATOM
   1 C1           1.0020    -1.1399    -0.0893 C.3          1    LIG   0.0000
   2 C2           0.3887    -0.2817     1.0051 C.3          1    LIG   0.0000
   3 O3           1.0000     1.0000     1.0000 O.3          1    LIG   0.0000
   4 C4           2.3502     1.0000     1.0000 C.ar         1    LIG   0.0000
   5 C5           3.0137    -0.1059     1.5208 C.ar         1    LIG   0.0000
   6 C6           4.4044    -0.1282     1.5308 C.ar         1    LIG   0.0000
   7 C7           5.1214     0.9511     1.0224 C.ar         1    LIG   0.0000
   8 N8           6.5217     0.9290     1.0324 N.2          1    LIG   1.0000
   9 O9           7.1085    -0.0284     1.4831 O.co2        1    LIG   0.0000
  10 O10          7.1499     1.8752     0.5868 O.co2        1    LIG  -1.0000
  11 C11          4.4582     2.0573     0.5014 C.ar         1    LIG   0.0000
  12 C12          3.0669     2.0793     0.4915 C.ar         1    LIG   0.0000
  13 C13          2.3900     3.2385    -0.0544 C.2          1    LIG   0.0000
  14 C14          1.0480     3.4273    -0.1464 C.2          1    LIG   0.0000
  15 C15          0.6958     4.6729    -0.7307 C.2          1    LIG   0.0000
  16 C16          1.7144     5.4938    -1.1113 C.2          1    LIG   0.0000
  17 S17          3.1296     4.6275    -0.7088 S.3          1    LIG   0.0000
  18 H            0.5715    -2.0425    -0.0858 H            1    LIG   0.0000
  19 H            0.8544    -0.7037    -0.9770 H            1    LIG   0.0000
  20 H            1.9835    -1.2381     0.0748 H            1    LIG   0.0000
  21 H           -0.5929    -0.1834     0.8410 H            1    LIG   0.0000
  22 H            0.5362    -0.7178     1.8928 H            1    LIG   0.0000
  23 H            2.4949    -0.8792     1.8853 H            1    LIG   0.0000
  24 H            4.8891    -0.9196     1.9032 H            1    LIG   0.0000
  25 H            4.9771     2.8305     0.1369 H            1    LIG   0.0000
  26 H            0.3754     2.7565     0.1660 H            1    LIG   0.0000
  27 H           -0.2605     4.9365    -0.8575 H            1    LIG   0.0000
  28 H            1.6482     6.3988    -1.5314 H            1    LIG   0.0000
@<TRIPOS>BOND
   1        1        2 1
   2        2        3 1
   3        3        4 1
   4        4        5 ar
   5        5        6 ar
   6        6        7 ar
   7        7        8 1
   8        8        9 ar
   9        8       10 ar
  10        7       11 ar
  11       11       12 ar
  12       12        4 ar
  13       12       13 1
  14       13       14 2
  15       14       15 1
  16       15       16 2
  17       16       17 1
  18       17       13 1
  19        1       18 1
  20        1       19 1
  21        1       20 1
  22        2       21 1
  23        2       22 1
  24        5       23 1
  25        6       24 1
  26       11       25 1
  27       14       26 1
  28       15       27 1
  29       16       28 1

