@<TRIPOS>MOLECULE
*****
 28 29 0 0 0
SMALL
USER_CHARGES

@<TRIPOS>ATOM
      1 C1          0.3952   -0.8517   -0.4040 C.3     1  LIG1        0.0000
      2 C2          0.3887   -0.2817    1.0051 C.3     1  LIG1        0.0000
      3 O3          1.0000    1.0000    1.0000 O.2     1  LIG1        0.0000
      4 C4          2.3502    1.0000    1.0000 C.3     1  LIG1        0.0000
      5 C5          3.0137   -0.2224    1.0046 C.3     1  LIG1        0.0000
      6 C6          4.4044   -0.2468    1.0043 C.3     1  LIG1        0.0000
      7 C7          5.1214    0.9462    0.9997 C.3     1  LIG1        0.0000
      8 N8          6.5217    0.9220    0.9994 N.pl3   1  LIG1        1.0000
      9 O9          7.1085   -0.1362    1.0032 O.2     1  LIG1        0.0000
     10 O10         7.1499    1.9678    0.9954 O.2     1  LIG1       -1.0000
     11 C11         4.4582    2.1689    0.9949 C.3     1  LIG1        0.0000
     12 C12         3.0669    2.1931    0.9953 C.3     1  LIG1        0.0000
     13 C13         2.3900    3.4744    0.9904 C.2     1  LIG1        0.0000
     14 C14         2.4938    4.4446    0.0455 C.2     1  LIG1        0.0000
     15 C15         1.7007    5.5886    0.3270 C.2     1  LIG1        0.0000
     16 C16         0.9600    5.5683    1.4704 C.2     1  LIG1        0.0000
     17 S17         1.3112    4.0536    2.1758 S.3     1  LIG1        0.0000
     18 H          -0.0354   -1.7543   -0.4004 H       1  LIG1        0.0000
     19 H          -0.1132   -0.2423   -1.0124 H       1  LIG1        0.0000
     20 H           1.3383   -0.9335   -0.7261 H       1  LIG1        0.0000
     21 H          -0.5545   -0.1998    1.3272 H       1  LIG1        0.0000
     22 H           0.8970   -0.8911    1.6135 H       1  LIG1        0.0000
     23 H           2.4949   -1.0773    1.0081 H       1  LIG1        0.0000
     24 H           4.8891   -1.1215    1.0073 H       1  LIG1        0.0000
     25 H           4.9771    3.0237    0.9913 H       1  LIG1        0.0000
     26 H           3.0708    4.3617   -0.7670 H       1  LIG1        0.0000
     27 H           1.6864    6.3765   -0.2887 H       1  LIG1        0.0000
     28 H           0.3491    6.2796    1.8179 H       1  LIG1        0.0000
@<TRIPOS>BOND
     1     1     2    1
     2     2     3    1
     3     3     4    1
     4     4     5   ar
     5     5     6   ar
     6     6     7   ar
     7     7     8    1
     8     8     9   ar
     9     8    10   ar
    10     7    11   ar
    11    11    12   ar
    12    12     4   ar
    13    12    13    1
    14    13    14    2
    15    14    15    1
    16    15    16    2
    17    16    17    1
    18    17    13    1
    19     1    18    1
    20     1    19    1
    21     1    20    1
    22     2    21    1
    23     2    22    1
    24     5    23    1
    25     6    24    1
    26    11    25    1
    27    14    26    1
    28    15    27    1
    29    16    28    1
