@<TRIPOS>MOLECULE
*****
 28 29 0 0 0
SMALL
USER_CHARGES

@<TRIPOS>ATOM
      1 C1         -1.1229   -0.1220    1.0044 C.3     1  LIG1        0.0000
      2 C2          0.3887   -0.2817    1.0051 C.3     1  LIG1        0.0000
      3 O3          1.0000    1.0000    1.0000 O.2     1  LIG1        0.0000
      4 C4          2.3502    1.0000    1.0000 C.3     1  LIG1        0.0000
      5 C5          3.0137   -0.2224    1.0046 C.3     1  LIG1        0.0000
      6 C6          4.4044   -0.2468    1.0043 C.3     1  LIG1        0.0000
      7 C7          5.1214    0.9462    0.9997 C.3     1  LIG1        0.0000
      8 N8          6.5217    0.9220    0.9994 N.pl3   1  LIG1        1.0000
      9 O9          7.1085   -0.1362    1.0032 O.2     1  LIG1        0.0000
     10 O10         7.1499    1.9678    0.9954 O.2     1  LIG1       -1.0000
     11 C11         4.4582    2.1689    0.9949 C.3     1  LIG1        0.0000
     12 C12         3.0669    2.1931    0.9953 C.3     1  LIG1        0.0000
     13 C13         2.3900    3.4744    0.9904 C.2     1  LIG1        0.0000
     14 C14         2.9728    4.7013    0.9886 C.2     1  LIG1        0.0000
     15 C15         2.0349    5.7676    0.9825 C.2     1  LIG1        0.0000
     16 C16         0.7133    5.4361    0.9784 C.2     1  LIG1        0.0000
     17 S17         0.7049    3.7288    0.9897 S.3     1  LIG1        0.0000
     18 H          -1.5534   -1.0246    1.0080 H       1  LIG1        0.0000
     19 H          -1.4049    0.3850    1.8189 H       1  LIG1        0.0000
     20 H          -1.4049    0.3786    0.1860 H       1  LIG1        0.0000
     21 H           0.6707   -0.7822    1.8236 H       1  LIG1        0.0000
     22 H           0.6707   -0.7887    0.1906 H       1  LIG1        0.0000
     23 H           2.4949   -1.0773    1.0081 H       1  LIG1        0.0000
     24 H           4.8891   -1.1215    1.0073 H       1  LIG1        0.0000
     25 H           4.9771    3.0237    0.9913 H       1  LIG1        0.0000
     26 H           3.9632    4.8398    0.9912 H       1  LIG1        0.0000
     27 H           2.3321    6.7224    0.9813 H       1  LIG1        0.0000
     28 H          -0.0736    6.0531    0.9705 H       1  LIG1        0.0000
@<TRIPOS>BOND
     1     1     2    1
     2     2     3    1
     3     3     4    1
     4     4     5   ar
     5     5     6   ar
     6     6     7   ar
     7     7     8    1
     8     8     9   ar
     9     8    10   ar
    10     7    11   ar
    11    11    12   ar
    12    12     4   ar
    13    12    13    1
    14    13    14    2
    15    14    15    1
    16    15    16    2
    17    16    17    1
    18    17    13    1
    19     1    18    1
    20     1    19    1
    21     1    20    1
    22     2    21    1
    23     2    22    1
    24     5    23    1
    25     6    24    1
    26    11    25    1
    27    14    26    1
    28    15    27    1
    29    16    28    1
