@<TRIPOS>MOLECULE
*****
 28 29 0 0 0
SMALL
USER_CHARGES

@<TRIPOS>ATOM
      1 C1         -0.2718   -0.5333   -0.3406 C.3     1  LIG1        0.0000
      2 C2          0.3887   -0.2817    1.0051 C.3     1  LIG1        0.0000
      3 O3          1.0000    1.0000    1.0000 O.2     1  LIG1        0.0000
      4 C4          2.3502    1.0000    1.0000 C.3     1  LIG1        0.0000
      5 C5          3.0137   -0.1098    0.4876 C.3     1  LIG1        0.0000
      6 C6          4.4044   -0.1318    0.4770 C.3     1  LIG1        0.0000
      7 C7          5.1214    0.9514    0.9770 C.3     1  LIG1        0.0000
      8 N8          6.5217    0.9295    0.9665 N.pl3   1  LIG1        1.0000
      9 O9          7.1085   -0.0311    0.5227 O.2     1  LIG1        0.0000
     10 O10         7.1499    1.8791    1.4048 O.2     1  LIG1       -1.0000
     11 C11         4.4582    2.0615    1.4894 C.3     1  LIG1        0.0000
     12 C12         3.0669    2.0833    1.4999 C.3     1  LIG1        0.0000
     13 C13         2.3900    3.2466    2.0370 C.2     1  LIG1        0.0000
     14 C14         1.5271    3.2725    3.0857 C.2     1  LIG1        0.0000
     15 C15         1.0300    4.5719    3.3709 C.2     1  LIG1        0.0000
     16 C16         1.4677    5.5941    2.5834 C.2     1  LIG1        0.0000
     17 S17         2.5232    4.8476    1.4682 S.3     1  LIG1        0.0000
     18 H          -0.7024   -1.4359   -0.3370 H       1  LIG1        0.0000
     19 H          -0.9664    0.1666   -0.5071 H       1  LIG1        0.0000
     20 H           0.4187   -0.4962   -1.0630 H       1  LIG1        0.0000
     21 H          -0.3018   -0.3188    1.7275 H       1  LIG1        0.0000
     22 H           1.0832   -0.9816    1.1716 H       1  LIG1        0.0000
     23 H           2.4949   -0.8861    0.1295 H       1  LIG1        0.0000
     24 H           4.8891   -0.9258    0.1101 H       1  LIG1        0.0000
     25 H           4.9771    2.8378    1.8474 H       1  LIG1        0.0000
     26 H           1.2678    2.4582    3.6050 H       1  LIG1        0.0000
     27 H           0.3853    4.7301    4.1187 H       1  LIG1        0.0000
     28 H           1.2256    6.5624    2.6448 H       1  LIG1        0.0000
@<TRIPOS>BOND
     1     1     2    1
     2     2     3    1
     3     3     4    1
     4     4     5   ar
     5     5     6   ar
     6     6     7   ar
     7     7     8    1
     8     8     9   ar
     9     8    10   ar
    10     7    11   ar
    11    11    12   ar
    12    12     4   ar
    13    12    13    1
    14    13    14    2
    15    14    15    1
    16    15    16    2
    17    16    17    1
    18    17    13    1
    19     1    18    1
    20     1    19    1
    21     1    20    1
    22     2    21    1
    23     2    22    1
    24     5    23    1
    25     6    24    1
    26    11    25    1
    27    14    26    1
    28    15    27    1
    29    16    28    1
