@<TRIPOS>MOLECULE
*****
 28 29 0 0 0
SMALL
USER_CHARGES

@<TRIPOS>ATOM
      1 C1          1.0020   -1.1312    2.1062 C.3     1  LIG1        0.0000
      2 C2          0.3887   -0.2817    1.0051 C.3     1  LIG1        0.0000
      3 O3          1.0000    1.0000    1.0000 O.2     1  LIG1        0.0000
      4 C4          2.3502    1.0000    1.0000 C.3     1  LIG1        0.0000
      5 C5          3.0137   -0.1098    0.4876 C.3     1  LIG1        0.0000
      6 C6          4.4044   -0.1318    0.4770 C.3     1  LIG1        0.0000
      7 C7          5.1214    0.9514    0.9770 C.3     1  LIG1        0.0000
      8 N8          6.5217    0.9295    0.9665 N.pl3   1  LIG1        1.0000
      9 O9          7.1085   -0.0311    0.5227 O.2     1  LIG1        0.0000
     10 O10         7.1499    1.8791    1.4048 O.2     1  LIG1       -1.0000
     11 C11         4.4582    2.0615    1.4894 C.3     1  LIG1        0.0000
     12 C12         3.0669    2.0833    1.4999 C.3     1  LIG1        0.0000
     13 C13         2.3900    3.2466    2.0370 C.2     1  LIG1        0.0000
     14 C14         1.0480    3.4384    2.1226 C.2     1  LIG1        0.0000
     15 C15         0.6958    4.6866    2.7011 C.2     1  LIG1        0.0000
     16 C16         1.7144    5.5059    3.0853 C.2     1  LIG1        0.0000
     17 S17         3.1296    4.6407    2.6805 S.3     1  LIG1        0.0000
     18 H           0.5715   -2.0338    2.1098 H       1  LIG1        0.0000
     19 H           1.9835   -1.2307    1.9429 H       1  LIG1        0.0000
     20 H           0.8544   -0.6880    2.9904 H       1  LIG1        0.0000
     21 H           0.5362   -0.7248    0.1209 H       1  LIG1        0.0000
     22 H          -0.5929   -0.1822    1.1684 H       1  LIG1        0.0000
     23 H           2.4949   -0.8861    0.1295 H       1  LIG1        0.0000
     24 H           4.8891   -0.9258    0.1101 H       1  LIG1        0.0000
     25 H           4.9771    2.8378    1.8474 H       1  LIG1        0.0000
     26 H           0.3754    2.7679    1.8095 H       1  LIG1        0.0000
     27 H          -0.2605    4.9533    2.8216 H       1  LIG1        0.0000
     28 H           1.6482    6.4095    3.5086 H       1  LIG1        0.0000
@<TRIPOS>BOND
     1     1     2    1
     2     2     3    1
     3     3     4    1
     4     4     5   ar
     5     5     6   ar
     6     6     7   ar
     7     7     8    1
     8     8     9   ar
     9     8    10   ar
    10     7    11   ar
    11    11    12   ar
    12    12     4   ar
    13    12    13    1
    14    13    14    2
    15    14    15    1
    16    15    16    2
    17    16    17    1
    18    17    13    1
    19     1    18    1
    20     1    19    1
    21     1    20    1
    22     2    21    1
    23     2    22    1
    24     5    23    1
    25     6    24    1
    26    11    25    1
    27    14    26    1
    28    15    27    1
    29    16    28    1
