@<TRIPOS>MOLECULE

  19   20
SMALL
USER_CHARGES
@<TRIPOS>ATOM
   1 Br1         -1.7272     2.3349     0.0310 Br           1    LIG   0.0000
   2 C2          -0.0178     1.3753     0.0091 C.ar         1    LIG   0.0000
   3 C3          -0.0112    -0.0156     0.0011 C.ar         1    LIG   0.0000
   4 C4           1.2048    -0.6914    -0.0146 C.ar         1    LIG   0.0000
   5 C5           2.3976     0.0240    -0.0223 C.ar         1    LIG   0.0000
   6 C6           2.3978     1.4148    -0.0138 C.ar         1    LIG   0.0000
   7 C7           1.1793     2.0853     0.0019 C.ar         1    LIG   0.0000
   8 N8           1.1518     3.4889     0.0098 N.pl3        1    LIG   0.0000
   9 C9           2.2563     4.2864    -0.0073 C.2          1    LIG   0.0000
  10 C10          1.8107     5.5753     0.0002 C.2          1    LIG   0.0000
  11 C11          0.3985     5.5140     0.0162 C.2          1    LIG   0.0000
  12 N12          0.0706     4.2418     0.0238 N.2          1    LIG   0.0000
  13 H           -0.8718    -0.5247     0.0066 H            1    LIG   0.0000
  14 H            1.2213    -1.6913    -0.0203 H            1    LIG   0.0000
  15 H            3.2677    -0.4688    -0.0340 H            1    LIG   0.0000
  16 H            3.2586     1.9236    -0.0191 H            1    LIG   0.0000
  17 H            3.2097     3.9849    -0.0225 H            1    LIG   0.0000
  18 H            2.3731     6.4021    -0.0047 H            1    LIG   0.0000
  19 H           -0.2309     6.2910     0.0209 H            1    LIG   0.0000
@<TRIPOS>BOND
   1        1        2 1
   2        2        3 ar
   3        3        4 ar
   4        4        5 ar
   5        5        6 ar
   6        6        7 ar
   7        7        2 ar
   8        7        8 1
   9        8        9 1
  10        9       10 2
  11       10       11 1
  12       11       12 2
  13       12        8 1
  14        3       13 1
  15        4       14 1
  16        5       15 1
  17        6       16 1
  18        9       17 1
  19       10       18 1
  20       11       19 1

@<TRIPOS>MOLECULE

  19   20
SMALL
USER_CHARGES
@<TRIPOS>ATOM
   1 Br1         -1.7272     2.3349     0.0310 Br           1    LIG   0.0000
   2 C2          -0.0178     1.3753     0.0091 C.ar         1    LIG   0.0000
   3 C3          -0.0112    -0.0156     0.0011 C.ar         1    LIG   0.0000
   4 C4           1.2048    -0.6914    -0.0146 C.ar         1    LIG   0.0000
   5 C5           2.3976     0.0240    -0.0223 C.ar         1    LIG   0.0000
   6 C6           2.3978     1.4148    -0.0138 C.ar         1    LIG   0.0000
   7 C7           1.1793     2.0853     0.0019 C.ar         1    LIG   0.0000
   8 N8           1.1518     3.4889     0.0098 N.pl3        1    LIG   0.0000
   9 C9           1.6778     4.2805    -0.9664 C.2          1    LIG   0.0000
  10 C10          1.4425     5.5714    -0.5950 C.2          1    LIG   0.0000
  11 C11          0.7510     5.5174     0.6367 C.2          1    LIG   0.0000
  12 N12          0.6121     4.2472     0.9424 N.2          1    LIG   0.0000
  13 H           -0.8718    -0.5247     0.0066 H            1    LIG   0.0000
  14 H            1.2213    -1.6913    -0.0203 H            1    LIG   0.0000
  15 H            3.2677    -0.4688    -0.0340 H            1    LIG   0.0000
  16 H            3.2586     1.9236    -0.0191 H            1    LIG   0.0000
  17 H            2.1459     3.9741    -1.7952 H            1    LIG   0.0000
  18 H            1.7075     6.3953    -1.0960 H            1    LIG   0.0000
  19 H            0.4288     6.2974     1.1731 H            1    LIG   0.0000
@<TRIPOS>BOND
   1        1        2 1
   2        2        3 ar
   3        3        4 ar
   4        4        5 ar
   5        5        6 ar
   6        6        7 ar
   7        7        2 ar
   8        7        8 1
   9        8        9 1
  10        9       10 2
  11       10       11 1
  12       11       12 2
  13       12        8 1
  14        3       13 1
  15        4       14 1
  16        5       15 1
  17        6       16 1
  18        9       17 1
  19       10       18 1
  20       11       19 1

@<TRIPOS>MOLECULE

  19   20
SMALL
USER_CHARGES
@<TRIPOS>ATOM
   1 Br1         -1.7272     2.3349     0.0310 Br           1    LIG   0.0000
   2 C2          -0.0178     1.3753     0.0091 C.ar         1    LIG   0.0000
   3 C3          -0.0112    -0.0156     0.0011 C.ar         1    LIG   0.0000
   4 C4           1.2048    -0.6914    -0.0146 C.ar         1    LIG   0.0000
   5 C5           2.3976     0.0240    -0.0223 C.ar         1    LIG   0.0000
   6 C6           2.3978     1.4148    -0.0138 C.ar         1    LIG   0.0000
   7 C7           1.1793     2.0853     0.0019 C.ar         1    LIG   0.0000
   8 N8           1.1518     3.4889     0.0098 N.pl3        1    LIG   0.0000
   9 C9           1.7152     4.2703     0.9732 C.2          1    LIG   0.0000
  10 C10          1.4795     5.5653     0.6166 C.2          1    LIG   0.0000
  11 C11          0.7596     5.5245    -0.5992 C.2          1    LIG   0.0000
  12 N12          0.5952     4.2573    -0.9044 N.2          1    LIG   0.0000
  13 H           -0.8718    -0.5247     0.0066 H            1    LIG   0.0000
  14 H            1.2213    -1.6913    -0.0203 H            1    LIG   0.0000
  15 H            3.2677    -0.4688    -0.0340 H            1    LIG   0.0000
  16 H            3.2586     1.9236    -0.0191 H            1    LIG   0.0000
  17 H            2.2067     3.9552     1.7851 H            1    LIG   0.0000
  18 H            1.7610     6.3839     1.1174 H            1    LIG   0.0000
  19 H            0.4369     6.3105    -1.1266 H            1    LIG   0.0000
@<TRIPOS>BOND
   1        1        2 1
   2        2        3 ar
   3        3        4 ar
   4        4        5 ar
   5        5        6 ar
   6        6        7 ar
   7        7        2 ar
   8        7        8 1
   9        8        9 1
  10        9       10 2
  11       10       11 1
  12       11       12 2
  13       12        8 1
  14        3       13 1
  15        4       14 1
  16        5       15 1
  17        6       16 1
  18        9       17 1
  19       10       18 1
  20       11       19 1

@<TRIPOS>MOLECULE

  19   20
SMALL
USER_CHARGES
@<TRIPOS>ATOM
   1 Br1         -1.7272     2.3349     0.0310 Br           1    LIG   0.0000
   2 C2          -0.0178     1.3753     0.0091 C.ar         1    LIG   0.0000
   3 C3          -0.0112    -0.0156     0.0011 C.ar         1    LIG   0.0000
   4 C4           1.2048    -0.6914    -0.0146 C.ar         1    LIG   0.0000
   5 C5           2.3976     0.0240    -0.0223 C.ar         1    LIG   0.0000
   6 C6           2.3978     1.4148    -0.0138 C.ar         1    LIG   0.0000
   7 C7           1.1793     2.0853     0.0019 C.ar         1    LIG   0.0000
   8 N8           1.1518     3.4889     0.0098 N.pl3        1    LIG   0.0000
   9 C9           1.4993     4.2775    -1.0455 C.2          1    LIG   0.0000
  10 C10          1.3305     5.5695    -0.6431 C.2          1    LIG   0.0000
  11 C11          0.8633     5.5193     0.6901 C.2          1    LIG   0.0000
  12 N12          0.7813     4.2501     1.0195 N.2          1    LIG   0.0000
  13 H           -0.8718    -0.5247     0.0066 H            1    LIG   0.0000
  14 H            1.2213    -1.6913    -0.0203 H            1    LIG   0.0000
  15 H            3.2677    -0.4688    -0.0340 H            1    LIG   0.0000
  16 H            3.2586     1.9236    -0.0191 H            1    LIG   0.0000
  17 H            1.8168     3.9685    -1.9420 H            1    LIG   0.0000
  18 H            1.5034     6.3918    -1.1853 H            1    LIG   0.0000
  19 H            0.6381     6.3010     1.2717 H            1    LIG   0.0000
@<TRIPOS>BOND
   1        1        2 1
   2        2        3 ar
   3        3        4 ar
   4        4        5 ar
   5        5        6 ar
   6        6        7 ar
   7        7        2 ar
   8        7        8 1
   9        8        9 1
  10        9       10 2
  11       10       11 1
  12       11       12 2
  13       12        8 1
  14        3       13 1
  15        4       14 1
  16        5       15 1
  17        6       16 1
  18        9       17 1
  19       10       18 1
  20       11       19 1

@<TRIPOS>MOLECULE

  19   20
SMALL
USER_CHARGES
@<TRIPOS>ATOM
   1 Br1         -1.7272     2.3349     0.0310 Br           1    LIG   0.0000
   2 C2          -0.0178     1.3753     0.0091 C.ar         1    LIG   0.0000
   3 C3          -0.0112    -0.0156     0.0011 C.ar         1    LIG   0.0000
   4 C4           1.2048    -0.6914    -0.0146 C.ar         1    LIG   0.0000
   5 C5           2.3976     0.0240    -0.0223 C.ar         1    LIG   0.0000
   6 C6           2.3978     1.4148    -0.0138 C.ar         1    LIG   0.0000
   7 C7           1.1793     2.0853     0.0019 C.ar         1    LIG   0.0000
   8 N8           1.1518     3.4889     0.0098 N.pl3        1    LIG   0.0000
   9 C9           1.5399     4.2664     1.0591 C.2          1    LIG   0.0000
  10 C10          1.3706     5.5629     0.6715 C.2          1    LIG   0.0000
  11 C11          0.8726     5.5270    -0.6510 C.2          1    LIG   0.0000
  12 N12          0.7629     4.2610    -0.9845 N.2          1    LIG   0.0000
  13 H           -0.8718    -0.5247     0.0066 H            1    LIG   0.0000
  14 H            1.2213    -1.6913    -0.0203 H            1    LIG   0.0000
  15 H            3.2677    -0.4688    -0.0340 H            1    LIG   0.0000
  16 H            3.2586     1.9236    -0.0191 H            1    LIG   0.0000
  17 H            1.8828     3.9480     1.9429 H            1    LIG   0.0000
  18 H            1.5614     6.3794     1.2164 H            1    LIG   0.0000
  19 H            0.6469     6.3152    -1.2236 H            1    LIG   0.0000
@<TRIPOS>BOND
   1        1        2 1
   2        2        3 ar
   3        3        4 ar
   4        4        5 ar
   5        5        6 ar
   6        6        7 ar
   7        7        2 ar
   8        7        8 1
   9        8        9 1
  10        9       10 2
  11       10       11 1
  12       11       12 2
  13       12        8 1
  14        3       13 1
  15        4       14 1
  16        5       15 1
  17        6       16 1
  18        9       17 1
  19       10       18 1
  20       11       19 1

@<TRIPOS>MOLECULE

  19   20
SMALL
USER_CHARGES
@<TRIPOS>ATOM
   1 Br1         -1.7272     2.3349     0.0310 Br           1    LIG   0.0000
   2 C2          -0.0178     1.3753     0.0091 C.ar         1    LIG   0.0000
   3 C3          -0.0112    -0.0156     0.0011 C.ar         1    LIG   0.0000
   4 C4           1.2048    -0.6914    -0.0146 C.ar         1    LIG   0.0000
   5 C5           2.3976     0.0240    -0.0223 C.ar         1    LIG   0.0000
   6 C6           2.3978     1.4148    -0.0138 C.ar         1    LIG   0.0000
   7 C7           1.1793     2.0853     0.0019 C.ar         1    LIG   0.0000
   8 N8           1.1518     3.4889     0.0098 N.pl3        1    LIG   0.0000
   9 C9           0.5956     4.2484     0.9947 C.2          1    LIG   0.0000
  10 C10          0.7801     5.5515     0.6379 C.2          1    LIG   0.0000
  11 C11          1.4730     5.5384    -0.5942 C.2          1    LIG   0.0000
  12 N12          1.6613     4.2782    -0.9141 N.2          1    LIG   0.0000
  13 H           -0.8718    -0.5247     0.0066 H            1    LIG   0.0000
  14 H            1.2213    -1.6913    -0.0203 H            1    LIG   0.0000
  15 H            3.2677    -0.4688    -0.0340 H            1    LIG   0.0000
  16 H            3.2586     1.9236    -0.0191 H            1    LIG   0.0000
  17 H            0.1400     3.9146     1.8200 H            1    LIG   0.0000
  18 H            0.4833     6.3587     1.1481 H            1    LIG   0.0000
  19 H            1.7644     6.3364    -1.1217 H            1    LIG   0.0000
@<TRIPOS>BOND
   1        1        2 1
   2        2        3 ar
   3        3        4 ar
   4        4        5 ar
   5        5        6 ar
   6        6        7 ar
   7        7        2 ar
   8        7        8 1
   9        8        9 1
  10        9       10 2
  11       10       11 1
  12       11       12 2
  13       12        8 1
  14        3       13 1
  15        4       14 1
  16        5       15 1
  17        6       16 1
  18        9       17 1
  19       10       18 1
  20       11       19 1

@<TRIPOS>MOLECULE

  19   20
SMALL
USER_CHARGES
@<TRIPOS>ATOM
   1 Br1         -1.7272     2.3349     0.0310 Br           1    LIG   0.0000
   2 C2          -0.0178     1.3753     0.0091 C.ar         1    LIG   0.0000
   3 C3          -0.0112    -0.0156     0.0011 C.ar         1    LIG   0.0000
   4 C4           1.2048    -0.6914    -0.0146 C.ar         1    LIG   0.0000
   5 C5           2.3976     0.0240    -0.0223 C.ar         1    LIG   0.0000
   6 C6           2.3978     1.4148    -0.0138 C.ar         1    LIG   0.0000
   7 C7           1.1793     2.0853     0.0019 C.ar         1    LIG   0.0000
   8 N8           1.1518     3.4889     0.0098 N.pl3        1    LIG   0.0000
   9 C9           0.5581     4.2585    -0.9449 C.2          1    LIG   0.0000
  10 C10          0.7432     5.5576    -0.5737 C.2          1    LIG   0.0000
  11 C11          1.4644     5.5313     0.6418 C.2          1    LIG   0.0000
  12 N12          1.6782     4.2681     0.9328 N.2          1    LIG   0.0000
  13 H           -0.8718    -0.5247     0.0066 H            1    LIG   0.0000
  14 H            1.2213    -1.6913    -0.0203 H            1    LIG   0.0000
  15 H            3.2677    -0.4688    -0.0340 H            1    LIG   0.0000
  16 H            3.2586     1.9236    -0.0191 H            1    LIG   0.0000
  17 H            0.0792     3.9335    -1.7603 H            1    LIG   0.0000
  18 H            0.4298     6.3701    -1.0653 H            1    LIG   0.0000
  19 H            1.7563     6.3233     1.1780 H            1    LIG   0.0000
@<TRIPOS>BOND
   1        1        2 1
   2        2        3 ar
   3        3        4 ar
   4        4        5 ar
   5        5        6 ar
   6        6        7 ar
   7        7        2 ar
   8        7        8 1
   9        8        9 1
  10        9       10 2
  11       10       11 1
  12       11       12 2
  13       12        8 1
  14        3       13 1
  15        4       14 1
  16        5       15 1
  17        6       16 1
  18        9       17 1
  19       10       18 1
  20       11       19 1

@<TRIPOS>MOLECULE

  19   20
SMALL
USER_CHARGES
@<TRIPOS>ATOM
   1 Br1         -1.7272     2.3349     0.0310 Br           1    LIG   0.0000
   2 C2          -0.0178     1.3753     0.0091 C.ar         1    LIG   0.0000
   3 C3          -0.0112    -0.0156     0.0011 C.ar         1    LIG   0.0000
   4 C4           1.2048    -0.6914    -0.0146 C.ar         1    LIG   0.0000
   5 C5           2.3976     0.0240    -0.0223 C.ar         1    LIG   0.0000
   6 C6           2.3978     1.4148    -0.0138 C.ar         1    LIG   0.0000
   7 C7           1.1793     2.0853     0.0019 C.ar         1    LIG   0.0000
   8 N8           1.1518     3.4889     0.0098 N.pl3        1    LIG   0.0000
   9 C9           0.7741     4.2514     1.0738 C.2          1    LIG   0.0000
  10 C10          0.8922     5.5535     0.6861 C.2          1    LIG   0.0000
  11 C11          1.3607     5.5365    -0.6475 C.2          1    LIG   0.0000
  12 N12          1.4921     4.2753    -0.9911 N.2          1    LIG   0.0000
  13 H           -0.8718    -0.5247     0.0066 H            1    LIG   0.0000
  14 H            1.2213    -1.6913    -0.0203 H            1    LIG   0.0000
  15 H            3.2677    -0.4688    -0.0340 H            1    LIG   0.0000
  16 H            3.2586     1.9236    -0.0191 H            1    LIG   0.0000
  17 H            0.4690     3.9202     1.9667 H            1    LIG   0.0000
  18 H            0.6874     6.3622     1.2374 H            1    LIG   0.0000
  19 H            1.5550     6.3329    -1.2203 H            1    LIG   0.0000
@<TRIPOS>BOND
   1        1        2 1
   2        2        3 ar
   3        3        4 ar
   4        4        5 ar
   5        5        6 ar
   6        6        7 ar
   7        7        2 ar
   8        7        8 1
   9        8        9 1
  10        9       10 2
  11       10       11 1
  12       11       12 2
  13       12        8 1
  14        3       13 1
  15        4       14 1
  16        5       15 1
  17        6       16 1
  18        9       17 1
  19       10       18 1
  20       11       19 1

@<TRIPOS>MOLECULE

  19   20
SMALL
USER_CHARGES
@<TRIPOS>ATOM
   1 Br1         -1.7272     2.3349     0.0310 Br           1    LIG   0.0000
   2 C2          -0.0178     1.3753     0.0091 C.ar         1    LIG   0.0000
   3 C3          -0.0112    -0.0156     0.0011 C.ar         1    LIG   0.0000
   4 C4           1.2048    -0.6914    -0.0146 C.ar         1    LIG   0.0000
   5 C5           2.3976     0.0240    -0.0223 C.ar         1    LIG   0.0000
   6 C6           2.3978     1.4148    -0.0138 C.ar         1    LIG   0.0000
   7 C7           1.1793     2.0853     0.0019 C.ar         1    LIG   0.0000
   8 N8           1.1518     3.4889     0.0098 N.pl3        1    LIG   0.0000
   9 C9           0.7334     4.2624    -1.0308 C.2          1    LIG   0.0000
  10 C10          0.8521     5.5601    -0.6286 C.2          1    LIG   0.0000
  11 C11          1.3513     5.5288     0.6935 C.2          1    LIG   0.0000
  12 N12          1.5105     4.2644     1.0128 N.2          1    LIG   0.0000
  13 H           -0.8718    -0.5247     0.0066 H            1    LIG   0.0000
  14 H            1.2213    -1.6913    -0.0203 H            1    LIG   0.0000
  15 H            3.2677    -0.4688    -0.0340 H            1    LIG   0.0000
  16 H            3.2586     1.9236    -0.0191 H            1    LIG   0.0000
  17 H            0.4031     3.9407    -1.9181 H            1    LIG   0.0000
  18 H            0.6294     6.3746    -1.1643 H            1    LIG   0.0000
  19 H            1.5462     6.3187     1.2750 H            1    LIG   0.0000
@<TRIPOS>BOND
   1        1        2 1
   2        2        3 ar
   3        3        4 ar
   4        4        5 ar
   5        5        6 ar
   6        6        7 ar
   7        7        2 ar
   8        7        8 1
   9        8        9 1
  10        9       10 2
  11       10       11 1
  12       11       12 2
  13       12        8 1
  14        3       13 1
  15        4       14 1
  16        5       15 1
  17        6       16 1
  18        9       17 1
  19       10       18 1
  20       11       19 1

