@<TRIPOS>MOLECULE
*****
 19 20 0 0 0
SMALL
USER_CHARGES

@<TRIPOS>ATOM
      1 Br1        -1.7272    2.3349    0.0310 Br      1  LIG1        0.0000
      2 C2         -0.0178    1.3753    0.0091 C.ar    1  LIG1        0.0000
      3 C3         -0.0112   -0.0156    0.0011 C.ar    1  LIG1        0.0000
      4 C4          1.2048   -0.6914   -0.0146 C.ar    1  LIG1        0.0000
      5 C5          2.3976    0.0240   -0.0223 C.ar    1  LIG1        0.0000
      6 C6          2.3978    1.4148   -0.0138 C.ar    1  LIG1        0.0000
      7 C7          1.1793    2.0853    0.0019 C.ar    1  LIG1        0.0000
      8 N8          1.1518    3.4889    0.0098 N.pl3   1  LIG1        0.0000
      9 C9          0.5581    4.2585   -0.9449 C.2     1  LIG1        0.0000
     10 C10         0.7432    5.5576   -0.5737 C.2     1  LIG1        0.0000
     11 C11         1.4644    5.5313    0.6418 C.2     1  LIG1        0.0000
     12 N12         1.6782    4.2681    0.9328 N.2     1  LIG1        0.0000
     13 H          -0.8718   -0.5247    0.0066 H       1  LIG1        0.0000
     14 H           1.2213   -1.6913   -0.0203 H       1  LIG1        0.0000
     15 H           3.2677   -0.4688   -0.0340 H       1  LIG1        0.0000
     16 H           3.2586    1.9236   -0.0191 H       1  LIG1        0.0000
     17 H           0.0792    3.9335   -1.7603 H       1  LIG1        0.0000
     18 H           0.4298    6.3701   -1.0653 H       1  LIG1        0.0000
     19 H           1.7563    6.3233    1.1780 H       1  LIG1        0.0000
@<TRIPOS>BOND
     1     1     2    1
     2     2     3   ar
     3     3     4   ar
     4     4     5   ar
     5     5     6   ar
     6     6     7   ar
     7     7     2   ar
     8     7     8    1
     9     8     9    1
    10     9    10    2
    11    10    11    1
    12    11    12    2
    13    12     8    1
    14     3    13    1
    15     4    14    1
    16     5    15    1
    17     6    16    1
    18     9    17    1
    19    10    18    1
    20    11    19    1
