@<TRIPOS>MOLECULE

  31   33
SMALL
USER_CHARGES
@<TRIPOS>ATOM
   1 C1          -1.1914     2.3127     0.0570 C.3          1    LIG   0.0000
   2 C2           0.0452     1.4289     0.0258 C.2          1    LIG   0.0000
   3 C3           0.0431     0.0677     0.0140 C.2          1    LIG   0.0000
   4 C4           1.3977    -0.3267    -0.0145 C.2          1    LIG   0.0000
   5 C5           2.1085     0.8335    -0.0190 C.2          1    LIG   0.0000
   6 C6           3.5558     0.9223    -0.0430 C.ar         1    LIG   0.0000
   7 C7           4.2978    -0.2546    -0.0672 C.ar         1    LIG   0.0000
   8 C8           5.6870    -0.2002    -0.0900 C.ar         1    LIG   0.0000
   9 C9           6.3076     1.0443    -0.0897 C.ar         1    LIG   0.0000
  10 C10          7.8276     1.0822    -0.1165 C.3          1    LIG   0.0000
  11 C11          5.5530     2.2139    -0.0668 C.ar         1    LIG   0.0000
  12 C12          5.8614     3.5936    -0.0544 C.2          1    LIG   0.0000
  13 C13          4.6706     4.2511    -0.0225 C.2          1    LIG   0.0000
  14 C14          4.5121     5.7614    -0.0008 C.3          1    LIG   0.0000
  15 O15          3.6840     3.3844    -0.0175 O.2          1    LIG   0.0000
  16 C16          4.1786     2.1661    -0.0403 C.ar         1    LIG   0.0000
  17 O17          1.2856     1.8559     0.0063 O.2          1    LIG   0.0000
  18 H           -2.0107     1.7394     0.0672 H            1    LIG   0.0000
  19 H           -1.1732     2.8827     0.8784 H            1    LIG   0.0000
  20 H           -1.2038     2.8974    -0.7542 H            1    LIG   0.0000
  21 H           -0.7571    -0.5320     0.0237 H            1    LIG   0.0000
  22 H            1.7582    -1.2594    -0.0284 H            1    LIG   0.0000
  23 H            3.8319    -1.1394    -0.0680 H            1    LIG   0.0000
  24 H            6.2295    -1.0401    -0.1064 H            1    LIG   0.0000
  25 H            8.1841     0.1480    -0.1305 H            1    LIG   0.0000
  26 H            8.1346     1.5683    -0.9347 H            1    LIG   0.0000
  27 H            8.1637     1.5551     0.6980 H            1    LIG   0.0000
  28 H            6.7730     4.0044    -0.0667 H            1    LIG   0.0000
  29 H            5.4149     6.1915    -0.0101 H            1    LIG   0.0000
  30 H            3.9953     6.0540    -0.8053 H            1    LIG   0.0000
  31 H            4.0219     6.0333     0.8273 H            1    LIG   0.0000
@<TRIPOS>BOND
   1        1        2 1
   2        2        3 2
   3        3        4 1
   4        4        5 2
   5        5        6 1
   6        6        7 ar
   7        7        8 ar
   8        8        9 ar
   9        9       10 1
  10        9       11 ar
  11       11       12 1
  12       12       13 2
  13       13       14 1
  14       13       15 1
  15       15       16 1
  16       16        6 ar
  17       16       11 ar
  18        5       17 1
  19       17        2 1
  20        1       18 1
  21        1       19 1
  22        1       20 1
  23        3       21 1
  24        4       22 1
  25        7       23 1
  26        8       24 1
  27       10       25 1
  28       10       26 1
  29       10       27 1
  30       12       28 1
  31       14       29 1
  32       14       30 1
  33       14       31 1

@<TRIPOS>MOLECULE

  31   33
SMALL
USER_CHARGES
@<TRIPOS>ATOM
   1 C1          -1.1914     2.3127     0.0570 C.3          1    LIG   0.0000
   2 C2           0.0452     1.4289     0.0258 C.2          1    LIG   0.0000
   3 C3           0.0431     0.0677     0.0140 C.2          1    LIG   0.0000
   4 C4           1.3977    -0.3267    -0.0145 C.2          1    LIG   0.0000
   5 C5           2.1085     0.8335    -0.0190 C.2          1    LIG   0.0000
   6 C6           3.5558     0.9223    -0.0430 C.ar         1    LIG   0.0000
   7 C7           4.2668     0.0379    -0.8482 C.ar         1    LIG   0.0000
   8 C8           5.6553     0.0993    -0.8909 C.ar         1    LIG   0.0000
   9 C9           6.3064     1.0558    -0.1195 C.ar         1    LIG   0.0000
  10 C10          7.8250     1.1075    -0.1814 C.3          1    LIG   0.0000
  11 C11          5.5825     1.9354     0.6808 C.ar         1    LIG   0.0000
  12 C12          5.9255     2.9866     1.5616 C.2          1    LIG   0.0000
  13 C13          4.7533     3.4661     2.0591 C.2          1    LIG   0.0000
  14 C14          4.6335     4.6099     3.0511 C.3          1    LIG   0.0000
  15 O15          3.7462     2.7946     1.5499 O.2          1    LIG   0.0000
  16 C16          4.2092     1.8767     0.7297 C.ar         1    LIG   0.0000
  17 O17          1.2856     1.8559     0.0063 O.2          1    LIG   0.0000
  18 H           -2.0107     1.7394     0.0672 H            1    LIG   0.0000
  19 H           -1.1732     2.8827     0.8784 H            1    LIG   0.0000
  20 H           -1.2038     2.8974    -0.7542 H            1    LIG   0.0000
  21 H           -0.7571    -0.5320     0.0237 H            1    LIG   0.0000
  22 H            1.7582    -1.2594    -0.0284 H            1    LIG   0.0000
  23 H            3.7793    -0.6418    -1.3962 H            1    LIG   0.0000
  24 H            6.1758    -0.5324    -1.4655 H            1    LIG   0.0000
  25 H            8.1573     0.4013    -0.8065 H            1    LIG   0.0000
  26 H            8.1148     2.0066    -0.5097 H            1    LIG   0.0000
  27 H            8.2014     0.9488     0.7313 H            1    LIG   0.0000
  28 H            6.8461     3.3128     1.7762 H            1    LIG   0.0000
  29 H            5.5458     4.9489     3.2808 H            1    LIG   0.0000
  30 H            4.0959     5.3487     2.6447 H            1    LIG   0.0000
  31 H            4.1798     4.2852     3.8811 H            1    LIG   0.0000
@<TRIPOS>BOND
   1        1        2 1
   2        2        3 2
   3        3        4 1
   4        4        5 2
   5        5        6 1
   6        6        7 ar
   7        7        8 ar
   8        8        9 ar
   9        9       10 1
  10        9       11 ar
  11       11       12 1
  12       12       13 2
  13       13       14 1
  14       13       15 1
  15       15       16 1
  16       16        6 ar
  17       16       11 ar
  18        5       17 1
  19       17        2 1
  20        1       18 1
  21        1       19 1
  22        1       20 1
  23        3       21 1
  24        4       22 1
  25        7       23 1
  26        8       24 1
  27       10       25 1
  28       10       26 1
  29       10       27 1
  30       12       28 1
  31       14       29 1
  32       14       30 1
  33       14       31 1

@<TRIPOS>MOLECULE

  31   33
SMALL
USER_CHARGES
@<TRIPOS>ATOM
   1 C1          -1.1914     2.3127     0.0570 C.3          1    LIG   0.0000
   2 C2           0.0452     1.4289     0.0258 C.2          1    LIG   0.0000
   3 C3           0.0431     0.0677     0.0140 C.2          1    LIG   0.0000
   4 C4           1.3977    -0.3267    -0.0145 C.2          1    LIG   0.0000
   5 C5           2.1085     0.8335    -0.0190 C.2          1    LIG   0.0000
   6 C6           3.5558     0.9223    -0.0430 C.ar         1    LIG   0.0000
   7 C7           4.2938     0.0228     0.7200 C.ar         1    LIG   0.0000
   8 C8           5.6830     0.0844     0.7169 C.ar         1    LIG   0.0000
   9 C9           6.3074     1.0546    -0.0595 C.ar         1    LIG   0.0000
  10 C10          7.8273     1.1044    -0.0504 C.3          1    LIG   0.0000
  11 C11          5.5568     1.9475    -0.8193 C.ar         1    LIG   0.0000
  12 C12          5.8694     3.0212    -1.6843 C.2          1    LIG   0.0000
  13 C13          4.6807     3.5161    -2.1240 C.2          1    LIG   0.0000
  14 C14          4.5269     4.6845    -3.0822 C.3          1    LIG   0.0000
  15 O15          3.6917     2.8301    -1.5989 O.2          1    LIG   0.0000
  16 C16          4.1824     1.8935    -0.8170 C.ar         1    LIG   0.0000
  17 O17          1.2856     1.8559     0.0063 O.2          1    LIG   0.0000
  18 H           -2.0107     1.7394     0.0672 H            1    LIG   0.0000
  19 H           -1.1732     2.8827     0.8784 H            1    LIG   0.0000
  20 H           -1.2038     2.8974    -0.7542 H            1    LIG   0.0000
  21 H           -0.7571    -0.5320     0.0237 H            1    LIG   0.0000
  22 H            1.7582    -1.2594    -0.0284 H            1    LIG   0.0000
  23 H            3.8252    -0.6680     1.2706 H            1    LIG   0.0000
  24 H            6.2226    -0.5566     1.2625 H            1    LIG   0.0000
  25 H            8.1807     0.3879     0.5510 H            1    LIG   0.0000
  26 H            8.1711     0.9602    -0.9784 H            1    LIG   0.0000
  27 H            8.1296     1.9977     0.2820 H            1    LIG   0.0000
  28 H            6.7822     3.3511    -1.9249 H            1    LIG   0.0000
  29 H            5.4308     5.0309    -3.3333 H            1    LIG   0.0000
  30 H            4.0464     4.3800    -3.9046 H            1    LIG   0.0000
  31 H            4.0024     5.4117    -2.6396 H            1    LIG   0.0000
@<TRIPOS>BOND
   1        1        2 1
   2        2        3 2
   3        3        4 1
   4        4        5 2
   5        5        6 1
   6        6        7 ar
   7        7        8 ar
   8        8        9 ar
   9        9       10 1
  10        9       11 ar
  11       11       12 1
  12       12       13 2
  13       13       14 1
  14       13       15 1
  15       15       16 1
  16       16        6 ar
  17       16       11 ar
  18        5       17 1
  19       17        2 1
  20        1       18 1
  21        1       19 1
  22        1       20 1
  23        3       21 1
  24        4       22 1
  25        7       23 1
  26        8       24 1
  27       10       25 1
  28       10       26 1
  29       10       27 1
  30       12       28 1
  31       14       29 1
  32       14       30 1
  33       14       31 1

@<TRIPOS>MOLECULE

  31   33
SMALL
USER_CHARGES
@<TRIPOS>ATOM
   1 C1          -1.1914     2.3127     0.0570 C.3          1    LIG   0.0000
   2 C2           0.0452     1.4289     0.0258 C.2          1    LIG   0.0000
   3 C3           0.0431     0.0677     0.0140 C.2          1    LIG   0.0000
   4 C4           1.3977    -0.3267    -0.0145 C.2          1    LIG   0.0000
   5 C5           2.1085     0.8335    -0.0190 C.2          1    LIG   0.0000
   6 C6           3.5558     0.9223    -0.0430 C.ar         1    LIG   0.0000
   7 C7           4.2423     0.3645    -1.1171 C.ar         1    LIG   0.0000
   8 C8           5.6302     0.4340    -1.1667 C.ar         1    LIG   0.0000
   9 C9           6.3054     1.0684    -0.1296 C.ar         1    LIG   0.0000
  10 C10          7.8229     1.1351    -0.2034 C.3          1    LIG   0.0000
  11 C11          5.6059     1.6234     0.9384 C.ar         1    LIG   0.0000
  12 C12          5.9762     2.3101     2.1174 C.2          1    LIG   0.0000
  13 C13          4.8187     2.5932     2.7742 C.2          1    LIG   0.0000
  14 C14          4.7294     3.3298     4.0994 C.3          1    LIG   0.0000
  15 O15          3.7955     2.1379     2.0886 O.2          1    LIG   0.0000
  16 C16          4.2334     1.5542     0.9945 C.ar         1    LIG   0.0000
  17 O17          1.2856     1.8559     0.0063 O.2          1    LIG   0.0000
  18 H           -2.0107     1.7394     0.0672 H            1    LIG   0.0000
  19 H           -1.1732     2.8827     0.8784 H            1    LIG   0.0000
  20 H           -1.2038     2.8974    -0.7542 H            1    LIG   0.0000
  21 H           -0.7571    -0.5320     0.0237 H            1    LIG   0.0000
  22 H            1.7582    -1.2594    -0.0284 H            1    LIG   0.0000
  23 H            3.7377    -0.0864    -1.8533 H            1    LIG   0.0000
  24 H            6.1332     0.0354    -1.9336 H            1    LIG   0.0000
  25 H            8.1361     0.6841    -1.0392 H            1    LIG   0.0000
  26 H            8.1145     2.0917    -0.2115 H            1    LIG   0.0000
  27 H            8.2160     0.6736     0.5918 H            1    LIG   0.0000
  28 H            6.9039     2.5416     2.4102 H            1    LIG   0.0000
  29 H            5.6492     3.5683     4.4110 H            1    LIG   0.0000
  30 H            4.1907     4.1641     3.9814 H            1    LIG   0.0000
  31 H            4.2893     2.7422     4.7784 H            1    LIG   0.0000
@<TRIPOS>BOND
   1        1        2 1
   2        2        3 2
   3        3        4 1
   4        4        5 2
   5        5        6 1
   6        6        7 ar
   7        7        8 ar
   8        8        9 ar
   9        9       10 1
  10        9       11 ar
  11       11       12 1
  12       12       13 2
  13       13       14 1
  14       13       15 1
  15       15       16 1
  16       16        6 ar
  17       16       11 ar
  18        5       17 1
  19       17        2 1
  20        1       18 1
  21        1       19 1
  22        1       20 1
  23        3       21 1
  24        4       22 1
  25        7       23 1
  26        8       24 1
  27       10       25 1
  28       10       26 1
  29       10       27 1
  30       12       28 1
  31       14       29 1
  32       14       30 1
  33       14       31 1

@<TRIPOS>MOLECULE

  31   33
SMALL
USER_CHARGES
@<TRIPOS>ATOM
   1 C1          -1.1914     2.3127     0.0570 C.3          1    LIG   0.0000
   2 C2           0.0452     1.4289     0.0258 C.2          1    LIG   0.0000
   3 C3           0.0431     0.0677     0.0140 C.2          1    LIG   0.0000
   4 C4           1.3977    -0.3267    -0.0145 C.2          1    LIG   0.0000
   5 C5           2.1085     0.8335    -0.0190 C.2          1    LIG   0.0000
   6 C6           3.5558     0.9223    -0.0430 C.ar         1    LIG   0.0000
   7 C7           4.2787     0.3441     0.9958 C.ar         1    LIG   0.0000
   8 C8           5.6674     0.4140     0.9995 C.ar         1    LIG   0.0000
   9 C9           6.3069     1.0667    -0.0489 C.ar         1    LIG   0.0000
  10 C10          7.8261     1.1308    -0.0270 C.3          1    LIG   0.0000
  11 C11          5.5713     1.6397    -1.0826 C.ar         1    LIG   0.0000
  12 C12          5.9007     2.3566    -2.2558 C.2          1    LIG   0.0000
  13 C13          4.7209     2.6607    -2.8616 C.2          1    LIG   0.0000
  14 C14          4.5859     3.4303    -4.1640 C.3          1    LIG   0.0000
  15 O15          3.7220     2.1858    -2.1537 O.2          1    LIG   0.0000
  16 C16          4.1973     1.5768    -1.0894 C.ar         1    LIG   0.0000
  17 O17          1.2856     1.8559     0.0063 O.2          1    LIG   0.0000
  18 H           -2.0107     1.7394     0.0672 H            1    LIG   0.0000
  19 H           -1.1732     2.8827     0.8784 H            1    LIG   0.0000
  20 H           -1.2038     2.8974    -0.7542 H            1    LIG   0.0000
  21 H           -0.7571    -0.5320     0.0237 H            1    LIG   0.0000
  22 H            1.7582    -1.2594    -0.0284 H            1    LIG   0.0000
  23 H            3.7995    -0.1216     1.7397 H            1    LIG   0.0000
  24 H            6.1963     0.0027     1.7419 H            1    LIG   0.0000
  25 H            8.1676     0.6660     0.7898 H            1    LIG   0.0000
  26 H            8.1905     0.6819    -0.8429 H            1    LIG   0.0000
  27 H            8.1192     2.0868    -0.0136 H            1    LIG   0.0000
  28 H            6.8179     2.5931    -2.5763 H            1    LIG   0.0000
  29 H            5.4943     3.6787    -4.5002 H            1    LIG   0.0000
  30 H            4.1241     2.8590    -4.8425 H            1    LIG   0.0000
  31 H            4.0503     4.2600    -4.0068 H            1    LIG   0.0000
@<TRIPOS>BOND
   1        1        2 1
   2        2        3 2
   3        3        4 1
   4        4        5 2
   5        5        6 1
   6        6        7 ar
   7        7        8 ar
   8        8        9 ar
   9        9       10 1
  10        9       11 ar
  11       11       12 1
  12       12       13 2
  13       13       14 1
  14       13       15 1
  15       15       16 1
  16       16        6 ar
  17       16       11 ar
  18        5       17 1
  19       17        2 1
  20        1       18 1
  21        1       19 1
  22        1       20 1
  23        3       21 1
  24        4       22 1
  25        7       23 1
  26        8       24 1
  27       10       25 1
  28       10       26 1
  29       10       27 1
  30       12       28 1
  31       14       29 1
  32       14       30 1
  33       14       31 1

@<TRIPOS>MOLECULE

  31   33
SMALL
USER_CHARGES
@<TRIPOS>ATOM
   1 C1          -1.1914     2.3127     0.0570 C.3          1    LIG   0.0000
   2 C2           0.0452     1.4289     0.0258 C.2          1    LIG   0.0000
   3 C3           0.0431     0.0677     0.0140 C.2          1    LIG   0.0000
   4 C4           1.3977    -0.3267    -0.0145 C.2          1    LIG   0.0000
   5 C5           2.1085     0.8335    -0.0190 C.2          1    LIG   0.0000
   6 C6           3.5558     0.9223    -0.0430 C.ar         1    LIG   0.0000
   7 C7           4.1488     2.1809    -0.0411 C.ar         1    LIG   0.0000
   8 C8           5.5343     2.2968    -0.0643 C.ar         1    LIG   0.0000
   9 C9           6.3019     1.1374    -0.0877 C.ar         1    LIG   0.0000
  10 C10          7.8152     1.2855    -0.1113 C.3          1    LIG   0.0000
  11 C11          5.6955    -0.1157    -0.0880 C.ar         1    LIG   0.0000
  12 C12          6.1695    -1.4474    -0.1134 C.2          1    LIG   0.0000
  13 C13          5.0676    -2.2455    -0.1072 C.2          1    LIG   0.0000
  14 C14          5.0941    -3.7639    -0.1267 C.3          1    LIG   0.0000
  15 O15          3.9829    -1.5058    -0.0778 O.2          1    LIG   0.0000
  16 C16          4.3255    -0.2362    -0.0689 C.ar         1    LIG   0.0000
  17 O17          1.2856     1.8559     0.0063 O.2          1    LIG   0.0000
  18 H           -2.0107     1.7394     0.0672 H            1    LIG   0.0000
  19 H           -1.1732     2.8827     0.8784 H            1    LIG   0.0000
  20 H           -1.2038     2.8974    -0.7542 H            1    LIG   0.0000
  21 H           -0.7571    -0.5320     0.0237 H            1    LIG   0.0000
  22 H            1.7582    -1.2594    -0.0284 H            1    LIG   0.0000
  23 H            3.5787     3.0023    -0.0230 H            1    LIG   0.0000
  24 H            5.9704     3.1967    -0.0642 H            1    LIG   0.0000
  25 H            8.0552     2.2563    -0.1073 H            1    LIG   0.0000
  26 H            8.2062     0.8422     0.6952 H            1    LIG   0.0000
  27 H            8.1794     0.8555    -0.9375 H            1    LIG   0.0000
  28 H            7.1244    -1.7437    -0.1322 H            1    LIG   0.0000
  29 H            6.0425    -4.0805    -0.1483 H            1    LIG   0.0000
  30 H            4.6438    -4.1158     0.6939 H            1    LIG   0.0000
  31 H            4.6136    -4.0953    -0.9387 H            1    LIG   0.0000
@<TRIPOS>BOND
   1        1        2 1
   2        2        3 2
   3        3        4 1
   4        4        5 2
   5        5        6 1
   6        6        7 ar
   7        7        8 ar
   8        8        9 ar
   9        9       10 1
  10        9       11 ar
  11       11       12 1
  12       12       13 2
  13       13       14 1
  14       13       15 1
  15       15       16 1
  16       16        6 ar
  17       16       11 ar
  18        5       17 1
  19       17        2 1
  20        1       18 1
  21        1       19 1
  22        1       20 1
  23        3       21 1
  24        4       22 1
  25        7       23 1
  26        8       24 1
  27       10       25 1
  28       10       26 1
  29       10       27 1
  30       12       28 1
  31       14       29 1
  32       14       30 1
  33       14       31 1

@<TRIPOS>MOLECULE

  31   33
SMALL
USER_CHARGES
@<TRIPOS>ATOM
   1 C1          -1.1914     2.3127     0.0570 C.3          1    LIG   0.0000
   2 C2           0.0452     1.4289     0.0258 C.2          1    LIG   0.0000
   3 C3           0.0431     0.0677     0.0140 C.2          1    LIG   0.0000
   4 C4           1.3977    -0.3267    -0.0145 C.2          1    LIG   0.0000
   5 C5           2.1085     0.8335    -0.0190 C.2          1    LIG   0.0000
   6 C6           3.5558     0.9223    -0.0430 C.ar         1    LIG   0.0000
   7 C7           4.1798     1.8885     0.7399 C.ar         1    LIG   0.0000
   8 C8           5.5660     1.9973     0.7366 C.ar         1    LIG   0.0000
   9 C9           6.3031     1.1259    -0.0580 C.ar         1    LIG   0.0000
  10 C10          7.8179     1.2601    -0.0465 C.3          1    LIG   0.0000
  11 C11          5.6660     0.1628    -0.8356 C.ar         1    LIG   0.0000
  12 C12          6.1055    -0.8404    -1.7294 C.2          1    LIG   0.0000
  13 C13          4.9848    -1.4605    -2.1888 C.2          1    LIG   0.0000
  14 C14          4.9728    -2.6124    -3.1787 C.3          1    LIG   0.0000
  15 O15          3.9207    -0.9160    -1.6452 O.2          1    LIG   0.0000
  16 C16          4.2949     0.0533    -0.8390 C.ar         1    LIG   0.0000
  17 O17          1.2856     1.8559     0.0063 O.2          1    LIG   0.0000
  18 H           -2.0107     1.7394     0.0672 H            1    LIG   0.0000
  19 H           -1.1732     2.8827     0.8784 H            1    LIG   0.0000
  20 H           -1.2038     2.8974    -0.7542 H            1    LIG   0.0000
  21 H           -0.7571    -0.5320     0.0237 H            1    LIG   0.0000
  22 H            1.7582    -1.2594    -0.0284 H            1    LIG   0.0000
  23 H            3.6313     2.5047     1.3051 H            1    LIG   0.0000
  24 H            6.0242     2.6889     1.2949 H            1    LIG   0.0000
  25 H            8.0820     2.0029     0.5687 H            1    LIG   0.0000
  26 H            8.2260     0.4039     0.2702 H            1    LIG   0.0000
  27 H            8.1417     1.4619    -0.9709 H            1    LIG   0.0000
  28 H            7.0514    -1.0522    -1.9751 H            1    LIG   0.0000
  29 H            5.9116    -2.8379    -3.4391 H            1    LIG   0.0000
  30 H            4.5432    -3.4105    -2.7562 H            1    LIG   0.0000
  31 H            4.4557    -2.3472    -3.9925 H            1    LIG   0.0000
@<TRIPOS>BOND
   1        1        2 1
   2        2        3 2
   3        3        4 1
   4        4        5 2
   5        5        6 1
   6        6        7 ar
   7        7        8 ar
   8        8        9 ar
   9        9       10 1
  10        9       11 ar
  11       11       12 1
  12       12       13 2
  13       13       14 1
  14       13       15 1
  15       15       16 1
  16       16        6 ar
  17       16       11 ar
  18        5       17 1
  19       17        2 1
  20        1       18 1
  21        1       19 1
  22        1       20 1
  23        3       21 1
  24        4       22 1
  25        7       23 1
  26        8       24 1
  27       10       25 1
  28       10       26 1
  29       10       27 1
  30       12       28 1
  31       14       29 1
  32       14       30 1
  33       14       31 1

@<TRIPOS>MOLECULE

  31   33
SMALL
USER_CHARGES
@<TRIPOS>ATOM
   1 C1          -1.1914     2.3127     0.0570 C.3          1    LIG   0.0000
   2 C2           0.0452     1.4289     0.0258 C.2          1    LIG   0.0000
   3 C3           0.0431     0.0677     0.0140 C.2          1    LIG   0.0000
   4 C4           1.3977    -0.3267    -0.0145 C.2          1    LIG   0.0000
   5 C5           2.1085     0.8335    -0.0190 C.2          1    LIG   0.0000
   6 C6           3.5558     0.9223    -0.0430 C.ar         1    LIG   0.0000
   7 C7           4.1528     1.9036    -0.8283 C.ar         1    LIG   0.0000
   8 C8           5.5383     2.0121    -0.8713 C.ar         1    LIG   0.0000
   9 C9           6.3020     1.1271    -0.1179 C.ar         1    LIG   0.0000
  10 C10          7.8155     1.2633    -0.1774 C.3          1    LIG   0.0000
  11 C11          5.6916     0.1507     0.6645 C.ar         1    LIG   0.0000
  12 C12          6.1615    -0.8750     1.5164 C.2          1    LIG   0.0000
  13 C13          5.0574    -1.5105     1.9943 C.2          1    LIG   0.0000
  14 C14          5.0793    -2.6870     2.9547 C.3          1    LIG   0.0000
  15 O15          3.9752    -0.9515     1.5036 O.2          1    LIG   0.0000
  16 C16          4.3217     0.0365     0.7078 C.ar         1    LIG   0.0000
  17 O17          1.2856     1.8559     0.0063 O.2          1    LIG   0.0000
  18 H           -2.0107     1.7394     0.0672 H            1    LIG   0.0000
  19 H           -1.1732     2.8827     0.8784 H            1    LIG   0.0000
  20 H           -1.2038     2.8974    -0.7542 H            1    LIG   0.0000
  21 H           -0.7571    -0.5320     0.0237 H            1    LIG   0.0000
  22 H            1.7582    -1.2594    -0.0284 H            1    LIG   0.0000
  23 H            3.5853     2.5309    -1.3617 H            1    LIG   0.0000
  24 H            5.9773     2.7132    -1.4332 H            1    LIG   0.0000
  25 H            8.0586     2.0164    -0.7888 H            1    LIG   0.0000
  26 H            8.1696     1.4503     0.7389 H            1    LIG   0.0000
  27 H            8.2134     0.4129    -0.5215 H            1    LIG   0.0000
  28 H            7.1153    -1.0905     1.7261 H            1    LIG   0.0000
  29 H            6.0265    -2.9199     3.1749 H            1    LIG   0.0000
  30 H            4.5927    -2.4418     3.7932 H            1    LIG   0.0000
  31 H            4.6331    -3.4738     2.5282 H            1    LIG   0.0000
@<TRIPOS>BOND
   1        1        2 1
   2        2        3 2
   3        3        4 1
   4        4        5 2
   5        5        6 1
   6        6        7 ar
   7        7        8 ar
   8        8        9 ar
   9        9       10 1
  10        9       11 ar
  11       11       12 1
  12       12       13 2
  13       13       14 1
  14       13       15 1
  15       15       16 1
  16       16        6 ar
  17       16       11 ar
  18        5       17 1
  19       17        2 1
  20        1       18 1
  21        1       19 1
  22        1       20 1
  23        3       21 1
  24        4       22 1
  25        7       23 1
  26        8       24 1
  27       10       25 1
  28       10       26 1
  29       10       27 1
  30       12       28 1
  31       14       29 1
  32       14       30 1
  33       14       31 1

@<TRIPOS>MOLECULE

  31   33
SMALL
USER_CHARGES
@<TRIPOS>ATOM
   1 C1          -1.1914     2.3127     0.0570 C.3          1    LIG   0.0000
   2 C2           0.0452     1.4289     0.0258 C.2          1    LIG   0.0000
   3 C3           0.0431     0.0677     0.0140 C.2          1    LIG   0.0000
   4 C4           1.3977    -0.3267    -0.0145 C.2          1    LIG   0.0000
   5 C5           2.1085     0.8335    -0.0190 C.2          1    LIG   0.0000
   6 C6           3.5558     0.9223    -0.0430 C.ar         1    LIG   0.0000
   7 C7           4.2043     1.5619     1.0088 C.ar         1    LIG   0.0000
   8 C8           5.5911     1.6625     1.0123 C.ar         1    LIG   0.0000
   9 C9           6.3040     1.1133    -0.0479 C.ar         1    LIG   0.0000
  10 C10          7.8199     1.2325    -0.0244 C.3          1    LIG   0.0000
  11 C11          5.6425     0.4748    -1.0933 C.ar         1    LIG   0.0000
  12 C12          6.0547    -0.1639    -2.2852 C.2          1    LIG   0.0000
  13 C13          4.9194    -0.5876    -2.9040 C.2          1    LIG   0.0000
  14 C14          4.8769    -1.3323    -4.2270 C.3          1    LIG   0.0000
  15 O15          3.8715    -0.2593    -2.1839 O.2          1    LIG   0.0000
  16 C16          4.2708     0.3757    -1.1038 C.ar         1    LIG   0.0000
  17 O17          1.2856     1.8559     0.0063 O.2          1    LIG   0.0000
  18 H           -2.0107     1.7394     0.0672 H            1    LIG   0.0000
  19 H           -1.1732     2.8827     0.8784 H            1    LIG   0.0000
  20 H           -1.2038     2.8974    -0.7542 H            1    LIG   0.0000
  21 H           -0.7571    -0.5320     0.0237 H            1    LIG   0.0000
  22 H            1.7582    -1.2594    -0.0284 H            1    LIG   0.0000
  23 H            3.6729     1.9492     1.7622 H            1    LIG   0.0000
  24 H            6.0668     2.1211     1.7630 H            1    LIG   0.0000
  25 H            8.1032     1.7201     0.8014 H            1    LIG   0.0000
  26 H            8.2263     0.3188    -0.0280 H            1    LIG   0.0000
  27 H            8.1271     1.7371    -0.8313 H            1    LIG   0.0000
  28 H            6.9936    -0.2809    -2.6091 H            1    LIG   0.0000
  29 H            5.8081    -1.4573    -4.5693 H            1    LIG   0.0000
  30 H            4.4484    -2.2259    -4.0929 H            1    LIG   0.0000
  31 H            4.3461    -0.8042    -4.8899 H            1    LIG   0.0000
@<TRIPOS>BOND
   1        1        2 1
   2        2        3 2
   3        3        4 1
   4        4        5 2
   5        5        6 1
   6        6        7 ar
   7        7        8 ar
   8        8        9 ar
   9        9       10 1
  10        9       11 ar
  11       11       12 1
  12       12       13 2
  13       13       14 1
  14       13       15 1
  15       15       16 1
  16       16        6 ar
  17       16       11 ar
  18        5       17 1
  19       17        2 1
  20        1       18 1
  21        1       19 1
  22        1       20 1
  23        3       21 1
  24        4       22 1
  25        7       23 1
  26        8       24 1
  27       10       25 1
  28       10       26 1
  29       10       27 1
  30       12       28 1
  31       14       29 1
  32       14       30 1
  33       14       31 1

@<TRIPOS>MOLECULE

  31   33
SMALL
USER_CHARGES
@<TRIPOS>ATOM
   1 C1          -1.1914     2.3127     0.0570 C.3          1    LIG   0.0000
   2 C2           0.0452     1.4289     0.0258 C.2          1    LIG   0.0000
   3 C3           0.0431     0.0677     0.0140 C.2          1    LIG   0.0000
   4 C4           1.3977    -0.3267    -0.0145 C.2          1    LIG   0.0000
   5 C5           2.1085     0.8335    -0.0190 C.2          1    LIG   0.0000
   6 C6           3.5558     0.9223    -0.0430 C.ar         1    LIG   0.0000
   7 C7           4.1679     1.5823    -1.1040 C.ar         1    LIG   0.0000
   8 C8           5.5539     1.6825    -1.1539 C.ar         1    LIG   0.0000
   9 C9           6.3026     1.1149    -0.1286 C.ar         1    LIG   0.0000
  10 C10          7.8167     1.2368    -0.2009 C.3          1    LIG   0.0000
  11 C11          5.6771     0.4585     0.9278 C.ar         1    LIG   0.0000
  12 C12          6.1303    -0.2104     2.0879 C.2          1    LIG   0.0000
  13 C13          5.0172    -0.6551     2.7319 C.2          1    LIG   0.0000
  14 C14          5.0204    -1.4328     4.0365 C.3          1    LIG   0.0000
  15 O15          3.9449    -0.3072     2.0584 O.2          1    LIG   0.0000
  16 C16          4.3068     0.3531     0.9802 C.ar         1    LIG   0.0000
  17 O17          1.2856     1.8559     0.0063 O.2          1    LIG   0.0000
  18 H           -2.0107     1.7394     0.0672 H            1    LIG   0.0000
  19 H           -1.1732     2.8827     0.8784 H            1    LIG   0.0000
  20 H           -1.2038     2.8974    -0.7542 H            1    LIG   0.0000
  21 H           -0.7571    -0.5320     0.0237 H            1    LIG   0.0000
  22 H            1.7582    -1.2594    -0.0284 H            1    LIG   0.0000
  23 H            3.6110     1.9845    -1.8308 H            1    LIG   0.0000
  24 H            6.0037     2.1538    -1.9125 H            1    LIG   0.0000
  25 H            8.0717     1.7383    -1.0276 H            1    LIG   0.0000
  26 H            8.1503     1.7286     0.6035 H            1    LIG   0.0000
  27 H            8.2238     0.3238    -0.2259 H            1    LIG   0.0000
  28 H            7.0796    -0.3325     2.3775 H            1    LIG   0.0000
  29 H            5.9630    -1.5677     4.3419 H            1    LIG   0.0000
  30 H            4.5150    -0.9208     4.7310 H            1    LIG   0.0000
  31 H            4.5852    -2.3221     3.8954 H            1    LIG   0.0000
@<TRIPOS>BOND
   1        1        2 1
   2        2        3 2
   3        3        4 1
   4        4        5 2
   5        5        6 1
   6        6        7 ar
   7        7        8 ar
   8        8        9 ar
   9        9       10 1
  10        9       11 ar
  11       11       12 1
  12       12       13 2
  13       13       14 1
  14       13       15 1
  15       15       16 1
  16       16        6 ar
  17       16       11 ar
  18        5       17 1
  19       17        2 1
  20        1       18 1
  21        1       19 1
  22        1       20 1
  23        3       21 1
  24        4       22 1
  25        7       23 1
  26        8       24 1
  27       10       25 1
  28       10       26 1
  29       10       27 1
  30       12       28 1
  31       14       29 1
  32       14       30 1
  33       14       31 1

