@<TRIPOS>MOLECULE
*****
 31 33 0 0 0
SMALL
USER_CHARGES

@<TRIPOS>ATOM
      1 C1         -1.1914    2.3127    0.0570 C.3     1  LIG1        0.0000
      2 C2          0.0452    1.4289    0.0258 C.2     1  LIG1        0.0000
      3 C3          0.0431    0.0677    0.0140 C.2     1  LIG1        0.0000
      4 C4          1.3977   -0.3267   -0.0145 C.2     1  LIG1        0.0000
      5 C5          2.1085    0.8335   -0.0190 C.2     1  LIG1        0.0000
      6 C6          3.5558    0.9223   -0.0430 C.ar    1  LIG1        0.0000
      7 C7          4.2043    1.5619    1.0088 C.ar    1  LIG1        0.0000
      8 C8          5.5911    1.6625    1.0123 C.ar    1  LIG1        0.0000
      9 C9          6.3040    1.1133   -0.0479 C.ar    1  LIG1        0.0000
     10 C10         7.8199    1.2325   -0.0244 C.3     1  LIG1        0.0000
     11 C11         5.6425    0.4748   -1.0933 C.ar    1  LIG1        0.0000
     12 C12         6.0547   -0.1639   -2.2852 C.2     1  LIG1        0.0000
     13 C13         4.9194   -0.5876   -2.9040 C.2     1  LIG1        0.0000
     14 C14         4.8769   -1.3323   -4.2270 C.3     1  LIG1        0.0000
     15 O15         3.8715   -0.2593   -2.1839 O.2     1  LIG1        0.0000
     16 C16         4.2708    0.3757   -1.1038 C.ar    1  LIG1        0.0000
     17 O17         1.2856    1.8559    0.0063 O.2     1  LIG1        0.0000
     18 H          -2.0107    1.7394    0.0672 H       1  LIG1        0.0000
     19 H          -1.1732    2.8827    0.8784 H       1  LIG1        0.0000
     20 H          -1.2038    2.8974   -0.7542 H       1  LIG1        0.0000
     21 H          -0.7571   -0.5320    0.0237 H       1  LIG1        0.0000
     22 H           1.7582   -1.2594   -0.0284 H       1  LIG1        0.0000
     23 H           3.6729    1.9492    1.7622 H       1  LIG1        0.0000
     24 H           6.0668    2.1211    1.7630 H       1  LIG1        0.0000
     25 H           8.1032    1.7201    0.8014 H       1  LIG1        0.0000
     26 H           8.2263    0.3188   -0.0280 H       1  LIG1        0.0000
     27 H           8.1271    1.7371   -0.8313 H       1  LIG1        0.0000
     28 H           6.9936   -0.2809   -2.6091 H       1  LIG1        0.0000
     29 H           5.8081   -1.4573   -4.5693 H       1  LIG1        0.0000
     30 H           4.4484   -2.2259   -4.0929 H       1  LIG1        0.0000
     31 H           4.3461   -0.8042   -4.8899 H       1  LIG1        0.0000
@<TRIPOS>BOND
     1     1     2    1
     2     2     3    2
     3     3     4    1
     4     4     5    2
     5     5     6    1
     6     6     7   ar
     7     7     8   ar
     8     8     9   ar
     9     9    10    1
    10     9    11   ar
    11    11    12    1
    12    12    13    2
    13    13    14    1
    14    13    15    1
    15    15    16    1
    16    16     6   ar
    17    16    11   ar
    18     5    17    1
    19    17     2    1
    20     1    18    1
    21     1    19    1
    22     1    20    1
    23     3    21    1
    24     4    22    1
    25     7    23    1
    26     8    24    1
    27    10    25    1
    28    10    26    1
    29    10    27    1
    30    12    28    1
    31    14    29    1
    32    14    30    1
    33    14    31    1
