@<TRIPOS>MOLECULE
*****
 31 33 0 0 0
SMALL
USER_CHARGES

@<TRIPOS>ATOM
      1 C1         -1.1914    2.3127    0.0570 C.3     1  LIG1        0.0000
      2 C2          0.0452    1.4289    0.0258 C.2     1  LIG1        0.0000
      3 C3          0.0431    0.0677    0.0140 C.2     1  LIG1        0.0000
      4 C4          1.3977   -0.3267   -0.0145 C.2     1  LIG1        0.0000
      5 C5          2.1085    0.8335   -0.0190 C.2     1  LIG1        0.0000
      6 C6          3.5558    0.9223   -0.0430 C.ar    1  LIG1        0.0000
      7 C7          4.2668    0.0379   -0.8482 C.ar    1  LIG1        0.0000
      8 C8          5.6553    0.0993   -0.8909 C.ar    1  LIG1        0.0000
      9 C9          6.3064    1.0558   -0.1195 C.ar    1  LIG1        0.0000
     10 C10         7.8250    1.1075   -0.1814 C.3     1  LIG1        0.0000
     11 C11         5.5825    1.9354    0.6808 C.ar    1  LIG1        0.0000
     12 C12         5.9255    2.9866    1.5616 C.2     1  LIG1        0.0000
     13 C13         4.7533    3.4661    2.0591 C.2     1  LIG1        0.0000
     14 C14         4.6335    4.6099    3.0511 C.3     1  LIG1        0.0000
     15 O15         3.7462    2.7946    1.5499 O.2     1  LIG1        0.0000
     16 C16         4.2092    1.8767    0.7297 C.ar    1  LIG1        0.0000
     17 O17         1.2856    1.8559    0.0063 O.2     1  LIG1        0.0000
     18 H          -2.0107    1.7394    0.0672 H       1  LIG1        0.0000
     19 H          -1.1732    2.8827    0.8784 H       1  LIG1        0.0000
     20 H          -1.2038    2.8974   -0.7542 H       1  LIG1        0.0000
     21 H          -0.7571   -0.5320    0.0237 H       1  LIG1        0.0000
     22 H           1.7582   -1.2594   -0.0284 H       1  LIG1        0.0000
     23 H           3.7793   -0.6418   -1.3962 H       1  LIG1        0.0000
     24 H           6.1758   -0.5324   -1.4655 H       1  LIG1        0.0000
     25 H           8.1573    0.4013   -0.8065 H       1  LIG1        0.0000
     26 H           8.1148    2.0066   -0.5097 H       1  LIG1        0.0000
     27 H           8.2014    0.9488    0.7313 H       1  LIG1        0.0000
     28 H           6.8461    3.3128    1.7762 H       1  LIG1        0.0000
     29 H           5.5458    4.9489    3.2808 H       1  LIG1        0.0000
     30 H           4.0959    5.3487    2.6447 H       1  LIG1        0.0000
     31 H           4.1798    4.2852    3.8811 H       1  LIG1        0.0000
@<TRIPOS>BOND
     1     1     2    1
     2     2     3    2
     3     3     4    1
     4     4     5    2
     5     5     6    1
     6     6     7   ar
     7     7     8   ar
     8     8     9   ar
     9     9    10    1
    10     9    11   ar
    11    11    12    1
    12    12    13    2
    13    13    14    1
    14    13    15    1
    15    15    16    1
    16    16     6   ar
    17    16    11   ar
    18     5    17    1
    19    17     2    1
    20     1    18    1
    21     1    19    1
    22     1    20    1
    23     3    21    1
    24     4    22    1
    25     7    23    1
    26     8    24    1
    27    10    25    1
    28    10    26    1
    29    10    27    1
    30    12    28    1
    31    14    29    1
    32    14    30    1
    33    14    31    1
