@<TRIPOS>MOLECULE
*****
 31 33 0 0 0
SMALL
USER_CHARGES

@<TRIPOS>ATOM
      1 C1         -1.1914    2.3127    0.0570 C.3     1  LIG1        0.0000
      2 C2          0.0452    1.4289    0.0258 C.2     1  LIG1        0.0000
      3 C3          0.0431    0.0677    0.0140 C.2     1  LIG1        0.0000
      4 C4          1.3977   -0.3267   -0.0145 C.2     1  LIG1        0.0000
      5 C5          2.1085    0.8335   -0.0190 C.2     1  LIG1        0.0000
      6 C6          3.5558    0.9223   -0.0430 C.ar    1  LIG1        0.0000
      7 C7          4.2978   -0.2546   -0.0672 C.ar    1  LIG1        0.0000
      8 C8          5.6870   -0.2002   -0.0900 C.ar    1  LIG1        0.0000
      9 C9          6.3076    1.0443   -0.0897 C.ar    1  LIG1        0.0000
     10 C10         7.8276    1.0822   -0.1165 C.3     1  LIG1        0.0000
     11 C11         5.5530    2.2139   -0.0668 C.ar    1  LIG1        0.0000
     12 C12         5.8614    3.5936   -0.0544 C.2     1  LIG1        0.0000
     13 C13         4.6706    4.2511   -0.0225 C.2     1  LIG1        0.0000
     14 C14         4.5121    5.7614   -0.0008 C.3     1  LIG1        0.0000
     15 O15         3.6840    3.3844   -0.0175 O.2     1  LIG1        0.0000
     16 C16         4.1786    2.1661   -0.0403 C.ar    1  LIG1        0.0000
     17 O17         1.2856    1.8559    0.0063 O.2     1  LIG1        0.0000
     18 H          -2.0107    1.7394    0.0672 H       1  LIG1        0.0000
     19 H          -1.1732    2.8827    0.8784 H       1  LIG1        0.0000
     20 H          -1.2038    2.8974   -0.7542 H       1  LIG1        0.0000
     21 H          -0.7571   -0.5320    0.0237 H       1  LIG1        0.0000
     22 H           1.7582   -1.2594   -0.0284 H       1  LIG1        0.0000
     23 H           3.8319   -1.1394   -0.0680 H       1  LIG1        0.0000
     24 H           6.2295   -1.0401   -0.1064 H       1  LIG1        0.0000
     25 H           8.1841    0.1480   -0.1305 H       1  LIG1        0.0000
     26 H           8.1346    1.5683   -0.9347 H       1  LIG1        0.0000
     27 H           8.1637    1.5551    0.6980 H       1  LIG1        0.0000
     28 H           6.7730    4.0044   -0.0667 H       1  LIG1        0.0000
     29 H           5.4149    6.1915   -0.0101 H       1  LIG1        0.0000
     30 H           3.9953    6.0540   -0.8053 H       1  LIG1        0.0000
     31 H           4.0219    6.0333    0.8273 H       1  LIG1        0.0000
@<TRIPOS>BOND
     1     1     2    1
     2     2     3    2
     3     3     4    1
     4     4     5    2
     5     5     6    1
     6     6     7   ar
     7     7     8   ar
     8     8     9   ar
     9     9    10    1
    10     9    11   ar
    11    11    12    1
    12    12    13    2
    13    13    14    1
    14    13    15    1
    15    15    16    1
    16    16     6   ar
    17    16    11   ar
    18     5    17    1
    19    17     2    1
    20     1    18    1
    21     1    19    1
    22     1    20    1
    23     3    21    1
    24     4    22    1
    25     7    23    1
    26     8    24    1
    27    10    25    1
    28    10    26    1
    29    10    27    1
    30    12    28    1
    31    14    29    1
    32    14    30    1
    33    14    31    1
