@<TRIPOS>MOLECULE

  68   71
SMALL
USER_CHARGES
@<TRIPOS>ATOM
   1 C1           6.6418     3.1717     7.3286 C.3          1    LIG   0.0000
   2 C2           5.1923     3.4011     6.9328 C.3          1    LIG   0.0000
   3 S3           4.9421     2.8662     5.2218 S.3          1    LIG   0.0000
   4 C4           3.1872     3.2169     4.9511 C.3          1    LIG   0.0000
   5 C5           2.9312     4.7024     5.1469 C.3          1    LIG   0.0000
   6 C6           2.8037     2.8192     3.5357 C.2          1    LIG   0.0000
   7 N7           3.3203     3.3017     2.4340 N.2          1    LIG   0.0000
   8 O8           2.7648     2.7409     1.4446 O.2          1    LIG   0.0000
   9 C9           1.8781     1.8781     1.8781 C.2          1    LIG   0.0000
  10 C10          1.0000     1.0000     1.0000 C.3          1    LIG   0.0000
  11 N11         -0.2538     1.7059     0.6992 N.pl3        1    LIG   0.0000
  12 C12         -1.4752     1.3882     1.4530 C.3          1    LIG   0.0000
  13 C13         -0.2846     2.6785    -0.3028 C.2          1    LIG   0.0000
  14 N14         -1.1815     3.6236    -0.4404 N.2          1    LIG   0.0000
  15 N15         -0.8885     4.3451    -1.5075 N.2          1    LIG   0.0000
  16 C16          0.2028     3.8834    -2.0686 C.2          1    LIG   0.0000
  17 C17          0.8810     4.4286    -3.3147 C.3          1    LIG   0.0000
  18 C18          0.0963     5.6204    -3.8383 C.3          1    LIG   0.0000
  19 C19          0.7746     6.1657    -5.0845 C.3          1    LIG   0.0000
  20 C20         -1.3188     5.1841    -4.1814 C.3          1    LIG   0.0000
  21 C21          0.0482     6.7033    -2.7727 C.3          1    LIG   0.0000
  22 N22          0.6069     2.8207    -1.3216 N.pl3        1    LIG   0.0000
  23 C23          1.7898     1.9852    -1.5688 C.3          1    LIG   0.0000
  24 C24          1.3484     0.6042    -2.0230 C.ar         1    LIG   0.0000
  25 C25          0.3885    -0.0866    -1.2912 C.ar         1    LIG   0.0000
  26 C26         -0.0211    -1.3513    -1.7007 C.ar         1    LIG   0.0000
  27 C27          0.5406    -1.9103    -2.8439 C.ar         1    LIG   0.0000
  28 C28          0.1167    -3.2281    -3.2751 C.2          1    LIG   0.0000
  29 N29          0.5838    -3.8870    -4.3722 N.2          1    LIG   0.0000
  30 C30         -0.0416    -5.0416    -4.4182 C.2          1    LIG   0.0000
  31 N31         -0.8922    -5.0930    -3.3531 N.pl3        1    LIG   0.0000
  32 N32         -0.7785    -3.9753    -2.6713 N.2          1    LIG   0.0000
  33 C33          1.5022    -1.2268    -3.5815 C.ar         1    LIG   0.0000
  34 C34          1.9059     0.0370    -3.1649 C.ar         1    LIG   0.0000
  35 N35          1.8678     1.8977     3.1879 N.2          1    LIG   0.0000
  36 H            2.6383     2.6952     5.6042 H            1    LIG   0.0000
  37 H           -1.5007    -5.8541    -3.1285 H            1    LIG   0.0000
  38 H            6.7800     3.4672     8.2738 H            1    LIG   0.0000
  39 H            6.8593     2.1989     7.2482 H            1    LIG   0.0000
  40 H            7.2397     3.6979     6.7240 H            1    LIG   0.0000
  41 H            4.5943     2.8748     7.5373 H            1    LIG   0.0000
  42 H            4.9748     4.3739     7.0131 H            1    LIG   0.0000
  43 H            1.9617     4.8961     4.9973 H            1    LIG   0.0000
  44 H            3.1836     4.9641     6.0785 H            1    LIG   0.0000
  45 H            3.4801     5.2241     4.4938 H            1    LIG   0.0000
  46 H            1.4802     0.7954     0.1471 H            1    LIG   0.0000
  47 H            0.7954     0.1471     1.4802 H            1    LIG   0.0000
  48 H           -1.2759     0.6758     2.1257 H            1    LIG   0.0000
  49 H           -1.7999     2.2090     1.9229 H            1    LIG   0.0000
  50 H           -2.1808     1.0638     0.8230 H            1    LIG   0.0000
  51 H            0.9126     3.7163    -4.0157 H            1    LIG   0.0000
  52 H            1.8119     4.7157    -3.0889 H            1    LIG   0.0000
  53 H            0.2583     6.9498    -5.4290 H            1    LIG   0.0000
  54 H            1.7055     6.4527    -4.8588 H            1    LIG   0.0000
  55 H            0.8062     5.4533    -5.7856 H            1    LIG   0.0000
  56 H           -1.8350     5.9682    -4.5260 H            1    LIG   0.0000
  57 H           -1.2872     4.4717    -4.8825 H            1    LIG   0.0000
  58 H           -1.7650     4.8254    -3.3616 H            1    LIG   0.0000
  59 H           -0.4680     7.4873    -3.1172 H            1    LIG   0.0000
  60 H           -0.3980     6.3445    -1.9528 H            1    LIG   0.0000
  61 H            0.9792     6.9903    -2.5470 H            1    LIG   0.0000
  62 H            2.3228     1.9045    -0.7266 H            1    LIG   0.0000
  63 H            2.3524     2.4061    -2.2804 H            1    LIG   0.0000
  64 H           -0.0072     0.3259    -0.4707 H            1    LIG   0.0000
  65 H           -0.7114    -1.8528    -1.1793 H            1    LIG   0.0000
  66 H            0.0834    -5.7538    -5.1090 H            1    LIG   0.0000
  67 H            1.8984    -1.6396    -4.4016 H            1    LIG   0.0000
  68 H            2.5968     0.5382    -3.6859 H            1    LIG   0.0000
@<TRIPOS>BOND
   1        1        2 1
   2        2        3 1
   3        3        4 1
   4        4        5 1
   5        4        6 1
   6        6        7 2
   7        7        8 1
   8        8        9 1
   9        9       10 1
  10       10       11 1
  11       11       12 1
  12       11       13 1
  13       13       14 2
  14       14       15 1
  15       15       16 2
  16       16       17 1
  17       17       18 1
  18       18       19 1
  19       18       20 1
  20       18       21 1
  21       16       22 1
  22       22       13 1
  23       22       23 1
  24       23       24 1
  25       24       25 ar
  26       25       26 ar
  27       26       27 ar
  28       27       28 1
  29       28       29 1
  30       29       30 2
  31       30       31 1
  32       31       32 1
  33       32       28 2
  34       27       33 ar
  35       33       34 ar
  36       34       24 ar
  37        9       35 2
  38       35        6 1
  39        4       36 1
  40       31       37 1
  41        1       38 1
  42        1       39 1
  43        1       40 1
  44        2       41 1
  45        2       42 1
  46        5       43 1
  47        5       44 1
  48        5       45 1
  49       10       46 1
  50       10       47 1
  51       12       48 1
  52       12       49 1
  53       12       50 1
  54       17       51 1
  55       17       52 1
  56       19       53 1
  57       19       54 1
  58       19       55 1
  59       20       56 1
  60       20       57 1
  61       20       58 1
  62       21       59 1
  63       21       60 1
  64       21       61 1
  65       23       62 1
  66       23       63 1
  67       25       64 1
  68       26       65 1
  69       30       66 1
  70       33       67 1
  71       34       68 1

@<TRIPOS>MOLECULE

  68   71
SMALL
USER_CHARGES
@<TRIPOS>ATOM
   1 C1           6.6418     3.1717     7.3286 C.3          1    LIG   0.0000
   2 C2           5.1923     3.4011     6.9328 C.3          1    LIG   0.0000
   3 S3           4.9421     2.8662     5.2218 S.3          1    LIG   0.0000
   4 C4           3.1872     3.2169     4.9511 C.3          1    LIG   0.0000
   5 C5           2.9312     4.7024     5.1469 C.3          1    LIG   0.0000
   6 C6           2.8037     2.8192     3.5357 C.2          1    LIG   0.0000
   7 N7           3.3203     3.3017     2.4340 N.2          1    LIG   0.0000
   8 O8           2.7648     2.7409     1.4446 O.2          1    LIG   0.0000
   9 C9           1.8781     1.8781     1.8781 C.2          1    LIG   0.0000
  10 C10          1.0000     1.0000     1.0000 C.3          1    LIG   0.0000
  11 N11         -0.2538     1.7059     0.6992 N.pl3        1    LIG   0.0000
  12 C12         -1.4752     1.3882     1.4530 C.3          1    LIG   0.0000
  13 C13         -0.2846     2.6785    -0.3028 C.2          1    LIG   0.0000
  14 N14         -0.0556     3.9594    -0.1492 N.2          1    LIG   0.0000
  15 N15         -0.1856     4.5644    -1.3163 N.2          1    LIG   0.0000
  16 C16         -0.4916     3.6853    -2.2396 C.2          1    LIG   0.0000
  17 C17         -0.7257     3.9654    -3.7149 C.3          1    LIG   0.0000
  18 C18         -0.5511     5.4515    -3.9824 C.3          1    LIG   0.0000
  19 C19         -0.7852     5.7316    -5.4579 C.3          1    LIG   0.0000
  20 C20         -1.5533     6.2369    -3.1523 C.3          1    LIG   0.0000
  21 C21          0.8599     5.8720    -3.6045 C.3          1    LIG   0.0000
  22 N22         -0.5623     2.4762    -1.6200 N.pl3        1    LIG   0.0000
  23 C23         -0.8765     1.1907    -2.2580 C.3          1    LIG   0.0000
  24 C24          0.4078     0.5368    -2.7391 C.ar         1    LIG   0.0000
  25 C25          0.8737     0.7981    -4.0231 C.ar         1    LIG   0.0000
  26 C26          2.0489     0.2036    -4.4708 C.ar         1    LIG   0.0000
  27 C27          2.7446    -0.6505    -3.6214 C.ar         1    LIG   0.0000
  28 C28          3.9702    -1.2724    -4.0834 C.2          1    LIG   0.0000
  29 N29          4.7454    -2.1239    -3.3553 N.2          1    LIG   0.0000
  30 C30          5.7572    -2.4665    -4.1203 C.2          1    LIG   0.0000
  31 N31          5.6061    -1.8268    -5.3155 N.pl3        1    LIG   0.0000
  32 N32          4.5097    -1.1037    -5.2685 N.2          1    LIG   0.0000
  33 C33          2.2852    -0.9184    -2.3357 C.ar         1    LIG   0.0000
  34 C34          1.1095    -0.3197    -1.8963 C.ar         1    LIG   0.0000
  35 N35          1.8678     1.8977     3.1879 N.2          1    LIG   0.0000
  36 H            2.6383     2.6952     5.6042 H            1    LIG   0.0000
  37 H            6.2261    -1.8963    -6.0970 H            1    LIG   0.0000
  38 H            6.7800     3.4672     8.2738 H            1    LIG   0.0000
  39 H            6.8593     2.1989     7.2482 H            1    LIG   0.0000
  40 H            7.2397     3.6979     6.7240 H            1    LIG   0.0000
  41 H            4.5943     2.8748     7.5373 H            1    LIG   0.0000
  42 H            4.9748     4.3739     7.0131 H            1    LIG   0.0000
  43 H            1.9617     4.8961     4.9973 H            1    LIG   0.0000
  44 H            3.1836     4.9641     6.0785 H            1    LIG   0.0000
  45 H            3.4801     5.2241     4.4938 H            1    LIG   0.0000
  46 H            1.4802     0.7954     0.1471 H            1    LIG   0.0000
  47 H            0.7954     0.1471     1.4802 H            1    LIG   0.0000
  48 H           -1.2759     0.6758     2.1257 H            1    LIG   0.0000
  49 H           -1.7999     2.2090     1.9229 H            1    LIG   0.0000
  50 H           -2.1808     1.0638     0.8230 H            1    LIG   0.0000
  51 H           -1.6539     3.6888    -3.9635 H            1    LIG   0.0000
  52 H           -0.0663     3.4487    -4.2610 H            1    LIG   0.0000
  53 H           -0.6703     6.7093    -5.6339 H            1    LIG   0.0000
  54 H           -0.1259     5.2149    -6.0040 H            1    LIG   0.0000
  55 H           -1.7135     5.4550    -5.7065 H            1    LIG   0.0000
  56 H           -1.4384     7.2146    -3.3283 H            1    LIG   0.0000
  57 H           -2.4816     5.9603    -3.4009 H            1    LIG   0.0000
  58 H           -1.3993     6.0526    -2.1816 H            1    LIG   0.0000
  59 H            0.9747     6.8496    -3.7805 H            1    LIG   0.0000
  60 H            1.0139     5.6877    -2.6338 H            1    LIG   0.0000
  61 H            1.5192     5.3552    -4.1507 H            1    LIG   0.0000
  62 H           -1.4841     1.3450    -3.0371 H            1    LIG   0.0000
  63 H           -1.3280     0.5919    -1.5966 H            1    LIG   0.0000
  64 H            0.3640     1.4134    -4.6245 H            1    LIG   0.0000
  65 H            2.3896     0.3880    -5.3927 H            1    LIG   0.0000
  66 H            6.5030    -3.0844    -3.8713 H            1    LIG   0.0000
  67 H            2.7946    -1.5342    -1.7347 H            1    LIG   0.0000
  68 H            0.7683    -0.5047    -0.9747 H            1    LIG   0.0000
@<TRIPOS>BOND
   1        1        2 1
   2        2        3 1
   3        3        4 1
   4        4        5 1
   5        4        6 1
   6        6        7 2
   7        7        8 1
   8        8        9 1
   9        9       10 1
  10       10       11 1
  11       11       12 1
  12       11       13 1
  13       13       14 2
  14       14       15 1
  15       15       16 2
  16       16       17 1
  17       17       18 1
  18       18       19 1
  19       18       20 1
  20       18       21 1
  21       16       22 1
  22       22       13 1
  23       22       23 1
  24       23       24 1
  25       24       25 ar
  26       25       26 ar
  27       26       27 ar
  28       27       28 1
  29       28       29 1
  30       29       30 2
  31       30       31 1
  32       31       32 1
  33       32       28 2
  34       27       33 ar
  35       33       34 ar
  36       34       24 ar
  37        9       35 2
  38       35        6 1
  39        4       36 1
  40       31       37 1
  41        1       38 1
  42        1       39 1
  43        1       40 1
  44        2       41 1
  45        2       42 1
  46        5       43 1
  47        5       44 1
  48        5       45 1
  49       10       46 1
  50       10       47 1
  51       12       48 1
  52       12       49 1
  53       12       50 1
  54       17       51 1
  55       17       52 1
  56       19       53 1
  57       19       54 1
  58       19       55 1
  59       20       56 1
  60       20       57 1
  61       20       58 1
  62       21       59 1
  63       21       60 1
  64       21       61 1
  65       23       62 1
  66       23       63 1
  67       25       64 1
  68       26       65 1
  69       30       66 1
  70       33       67 1
  71       34       68 1

@<TRIPOS>MOLECULE

  68   71
SMALL
USER_CHARGES
@<TRIPOS>ATOM
   1 C1           6.6418     3.1717     7.3286 C.3          1    LIG   0.0000
   2 C2           5.1923     3.4011     6.9328 C.3          1    LIG   0.0000
   3 S3           4.9421     2.8662     5.2218 S.3          1    LIG   0.0000
   4 C4           3.1872     3.2169     4.9511 C.3          1    LIG   0.0000
   5 C5           2.9312     4.7024     5.1469 C.3          1    LIG   0.0000
   6 C6           2.8037     2.8192     3.5357 C.2          1    LIG   0.0000
   7 N7           3.3203     3.3017     2.4340 N.2          1    LIG   0.0000
   8 O8           2.7648     2.7409     1.4446 O.2          1    LIG   0.0000
   9 C9           1.8781     1.8781     1.8781 C.2          1    LIG   0.0000
  10 C10          1.0000     1.0000     1.0000 C.3          1    LIG   0.0000
  11 N11         -0.2538     1.7059     0.6992 N.pl3        1    LIG   0.0000
  12 C12         -1.4752     1.3882     1.4530 C.3          1    LIG   0.0000
  13 C13         -0.2846     2.6785    -0.3028 C.2          1    LIG   0.0000
  14 N14         -0.5479     2.4793    -1.5707 N.2          1    LIG   0.0000
  15 N15         -0.4736     3.6310    -2.2134 N.2          1    LIG   0.0000
  16 C16         -0.1702     4.5894    -1.3719 C.2          1    LIG   0.0000
  17 C17          0.0084     6.0621    -1.7023 C.3          1    LIG   0.0000
  18 C18         -0.2201     6.2791    -3.1893 C.3          1    LIG   0.0000
  19 C19         -0.0415     7.7520    -3.5197 C.3          1    LIG   0.0000
  20 C20          0.7833     5.4568    -3.9814 C.3          1    LIG   0.0000
  21 C21         -1.6307     5.8455    -3.5536 C.3          1    LIG   0.0000
  22 N22         -0.0428     4.0092    -0.1480 N.pl3        1    LIG   0.0000
  23 C23          0.2904     4.6951     1.1077 C.3          1    LIG   0.0000
  24 C24         -0.9877     5.1561     1.7876 C.ar         1    LIG   0.0000
  25 C25         -1.5019     6.4166     1.5037 C.ar         1    LIG   0.0000
  26 C26         -2.6718     6.8458     2.1218 C.ar         1    LIG   0.0000
  27 C27         -3.3137     6.0017     3.0219 C.ar         1    LIG   0.0000
  28 C28         -4.5336     6.4443     3.6685 C.2          1    LIG   0.0000
  29 N29         -5.2588     5.7189     4.5651 N.2          1    LIG   0.0000
  30 C30         -6.2833     6.4624     4.9170 C.2          1    LIG   0.0000
  31 N31         -6.1899     7.6418     4.2381 N.pl3        1    LIG   0.0000
  32 N32         -5.1153     7.6067     3.4824 N.2          1    LIG   0.0000
  33 C33         -2.8059     4.7394     3.3126 C.ar         1    LIG   0.0000
  34 C34         -1.6357     4.3184     2.6901 C.ar         1    LIG   0.0000
  35 N35          1.8678     1.8977     3.1879 N.2          1    LIG   0.0000
  36 H            2.6383     2.6952     5.6042 H            1    LIG   0.0000
  37 H           -6.8319     8.4056     4.3044 H            1    LIG   0.0000
  38 H            6.7800     3.4672     8.2738 H            1    LIG   0.0000
  39 H            6.8593     2.1989     7.2482 H            1    LIG   0.0000
  40 H            7.2397     3.6979     6.7240 H            1    LIG   0.0000
  41 H            4.5943     2.8748     7.5373 H            1    LIG   0.0000
  42 H            4.9748     4.3739     7.0131 H            1    LIG   0.0000
  43 H            1.9617     4.8961     4.9973 H            1    LIG   0.0000
  44 H            3.1836     4.9641     6.0785 H            1    LIG   0.0000
  45 H            3.4801     5.2241     4.4938 H            1    LIG   0.0000
  46 H            1.4802     0.7954     0.1471 H            1    LIG   0.0000
  47 H            0.7954     0.1471     1.4802 H            1    LIG   0.0000
  48 H           -1.2759     0.6758     2.1257 H            1    LIG   0.0000
  49 H           -1.7999     2.2090     1.9229 H            1    LIG   0.0000
  50 H           -2.1808     1.0638     0.8230 H            1    LIG   0.0000
  51 H            0.9364     6.3474    -1.4625 H            1    LIG   0.0000
  52 H           -0.6517     6.6031    -1.1811 H            1    LIG   0.0000
  53 H           -0.1919     7.8947    -4.4980 H            1    LIG   0.0000
  54 H           -0.7016     8.2929    -2.9985 H            1    LIG   0.0000
  55 H            0.8865     8.0372    -3.2800 H            1    LIG   0.0000
  56 H            0.6329     5.5996    -4.9597 H            1    LIG   0.0000
  57 H            1.7112     5.7421    -3.7416 H            1    LIG   0.0000
  58 H            0.6658     4.4878    -3.7640 H            1    LIG   0.0000
  59 H           -1.7810     5.9883    -4.5319 H            1    LIG   0.0000
  60 H           -1.7482     4.8765    -3.3363 H            1    LIG   0.0000
  61 H           -2.2908     6.3865    -3.0325 H            1    LIG   0.0000
  62 H            0.8681     5.4875     0.9116 H            1    LIG   0.0000
  63 H            0.7808     4.0663     1.7111 H            1    LIG   0.0000
  64 H           -1.0306     7.0145     0.8553 H            1    LIG   0.0000
  65 H           -3.0470     7.7508     1.9214 H            1    LIG   0.0000
  66 H           -7.0016     6.2094     5.5652 H            1    LIG   0.0000
  67 H           -3.2768     4.1418     3.9616 H            1    LIG   0.0000
  68 H           -1.2601     3.4137     2.8912 H            1    LIG   0.0000
@<TRIPOS>BOND
   1        1        2 1
   2        2        3 1
   3        3        4 1
   4        4        5 1
   5        4        6 1
   6        6        7 2
   7        7        8 1
   8        8        9 1
   9        9       10 1
  10       10       11 1
  11       11       12 1
  12       11       13 1
  13       13       14 2
  14       14       15 1
  15       15       16 2
  16       16       17 1
  17       17       18 1
  18       18       19 1
  19       18       20 1
  20       18       21 1
  21       16       22 1
  22       22       13 1
  23       22       23 1
  24       23       24 1
  25       24       25 ar
  26       25       26 ar
  27       26       27 ar
  28       27       28 1
  29       28       29 1
  30       29       30 2
  31       30       31 1
  32       31       32 1
  33       32       28 2
  34       27       33 ar
  35       33       34 ar
  36       34       24 ar
  37        9       35 2
  38       35        6 1
  39        4       36 1
  40       31       37 1
  41        1       38 1
  42        1       39 1
  43        1       40 1
  44        2       41 1
  45        2       42 1
  46        5       43 1
  47        5       44 1
  48        5       45 1
  49       10       46 1
  50       10       47 1
  51       12       48 1
  52       12       49 1
  53       12       50 1
  54       17       51 1
  55       17       52 1
  56       19       53 1
  57       19       54 1
  58       19       55 1
  59       20       56 1
  60       20       57 1
  61       20       58 1
  62       21       59 1
  63       21       60 1
  64       21       61 1
  65       23       62 1
  66       23       63 1
  67       25       64 1
  68       26       65 1
  69       30       66 1
  70       33       67 1
  71       34       68 1

@<TRIPOS>MOLECULE

  68   71
SMALL
USER_CHARGES
@<TRIPOS>ATOM
   1 C1           6.6418     3.1717     7.3286 C.3          1    LIG   0.0000
   2 C2           5.1923     3.4011     6.9328 C.3          1    LIG   0.0000
   3 S3           4.9421     2.8662     5.2218 S.3          1    LIG   0.0000
   4 C4           3.1872     3.2169     4.9511 C.3          1    LIG   0.0000
   5 C5           2.9312     4.7024     5.1469 C.3          1    LIG   0.0000
   6 C6           2.8037     2.8192     3.5357 C.2          1    LIG   0.0000
   7 N7           3.3203     3.3017     2.4340 N.2          1    LIG   0.0000
   8 O8           2.7648     2.7409     1.4446 O.2          1    LIG   0.0000
   9 C9           1.8781     1.8781     1.8781 C.2          1    LIG   0.0000
  10 C10          1.0000     1.0000     1.0000 C.3          1    LIG   0.0000
  11 N11         -0.2538     1.7059     0.6992 N.pl3        1    LIG   0.0000
  12 C12         -1.4752     1.3882     1.4530 C.3          1    LIG   0.0000
  13 C13         -0.2846     2.6785    -0.3028 C.2          1    LIG   0.0000
  14 N14         -0.5479     2.4793    -1.5707 N.2          1    LIG   0.0000
  15 N15         -0.4736     3.6310    -2.2134 N.2          1    LIG   0.0000
  16 C16         -0.1702     4.5894    -1.3719 C.2          1    LIG   0.0000
  17 C17          0.0084     6.0621    -1.7023 C.3          1    LIG   0.0000
  18 C18         -0.2201     6.2791    -3.1893 C.3          1    LIG   0.0000
  19 C19         -0.0415     7.7520    -3.5197 C.3          1    LIG   0.0000
  20 C20          0.7833     5.4568    -3.9814 C.3          1    LIG   0.0000
  21 C21         -1.6307     5.8455    -3.5536 C.3          1    LIG   0.0000
  22 N22         -0.0428     4.0092    -0.1480 N.pl3        1    LIG   0.0000
  23 C23          0.2904     4.6951     1.1077 C.3          1    LIG   0.0000
  24 C24          1.7405     5.1470     1.0686 C.ar         1    LIG   0.0000
  25 C25          2.5141     4.8802    -0.0558 C.ar         1    LIG   0.0000
  26 C26          3.8424     5.2909    -0.0994 C.ar         1    LIG   0.0000
  27 C27          4.3809     5.9664     0.9910 C.ar         1    LIG   0.0000
  28 C28          5.7648     6.3968     0.9502 C.2          1    LIG   0.0000
  29 N29          6.4123     7.0653     1.9452 N.2          1    LIG   0.0000
  30 C30          7.6413     7.2711     1.5288 C.2          1    LIG   0.0000
  31 N31          7.7499     6.7321     0.2805 N.pl3        1    LIG   0.0000
  32 N32          6.5924     6.2056    -0.0511 N.2          1    LIG   0.0000
  33 C33          3.6145     6.2366     2.1203 C.ar         1    LIG   0.0000
  34 C34          2.2874     5.8223     2.1554 C.ar         1    LIG   0.0000
  35 N35          1.8678     1.8977     3.1879 N.2          1    LIG   0.0000
  36 H            2.6383     2.6952     5.6042 H            1    LIG   0.0000
  37 H            8.5729     6.7367    -0.2875 H            1    LIG   0.0000
  38 H            6.7800     3.4672     8.2738 H            1    LIG   0.0000
  39 H            6.8593     2.1989     7.2482 H            1    LIG   0.0000
  40 H            7.2397     3.6979     6.7240 H            1    LIG   0.0000
  41 H            4.5943     2.8748     7.5373 H            1    LIG   0.0000
  42 H            4.9748     4.3739     7.0131 H            1    LIG   0.0000
  43 H            1.9617     4.8961     4.9973 H            1    LIG   0.0000
  44 H            3.1836     4.9641     6.0785 H            1    LIG   0.0000
  45 H            3.4801     5.2241     4.4938 H            1    LIG   0.0000
  46 H            1.4802     0.7954     0.1471 H            1    LIG   0.0000
  47 H            0.7954     0.1471     1.4802 H            1    LIG   0.0000
  48 H           -1.2759     0.6758     2.1257 H            1    LIG   0.0000
  49 H           -1.7999     2.2090     1.9229 H            1    LIG   0.0000
  50 H           -2.1808     1.0638     0.8230 H            1    LIG   0.0000
  51 H            0.9364     6.3474    -1.4625 H            1    LIG   0.0000
  52 H           -0.6517     6.6031    -1.1811 H            1    LIG   0.0000
  53 H           -0.1919     7.8947    -4.4980 H            1    LIG   0.0000
  54 H           -0.7016     8.2929    -2.9985 H            1    LIG   0.0000
  55 H            0.8865     8.0372    -3.2800 H            1    LIG   0.0000
  56 H            0.6329     5.5996    -4.9597 H            1    LIG   0.0000
  57 H            1.7112     5.7421    -3.7416 H            1    LIG   0.0000
  58 H            0.6658     4.4878    -3.7640 H            1    LIG   0.0000
  59 H           -1.7810     5.9883    -4.5319 H            1    LIG   0.0000
  60 H           -1.7482     4.8765    -3.3363 H            1    LIG   0.0000
  61 H           -2.2908     6.3865    -3.0325 H            1    LIG   0.0000
  62 H            0.1572     4.0683     1.8754 H            1    LIG   0.0000
  63 H           -0.3039     5.4914     1.2204 H            1    LIG   0.0000
  64 H            2.1156     4.3931    -0.8329 H            1    LIG   0.0000
  65 H            4.4038     5.1027    -0.9052 H            1    LIG   0.0000
  66 H            8.3659     7.7384     2.0353 H            1    LIG   0.0000
  67 H            4.0132     6.7230     2.8977 H            1    LIG   0.0000
  68 H            1.7263     6.0097     2.9616 H            1    LIG   0.0000
@<TRIPOS>BOND
   1        1        2 1
   2        2        3 1
   3        3        4 1
   4        4        5 1
   5        4        6 1
   6        6        7 2
   7        7        8 1
   8        8        9 1
   9        9       10 1
  10       10       11 1
  11       11       12 1
  12       11       13 1
  13       13       14 2
  14       14       15 1
  15       15       16 2
  16       16       17 1
  17       17       18 1
  18       18       19 1
  19       18       20 1
  20       18       21 1
  21       16       22 1
  22       22       13 1
  23       22       23 1
  24       23       24 1
  25       24       25 ar
  26       25       26 ar
  27       26       27 ar
  28       27       28 1
  29       28       29 1
  30       29       30 2
  31       30       31 1
  32       31       32 1
  33       32       28 2
  34       27       33 ar
  35       33       34 ar
  36       34       24 ar
  37        9       35 2
  38       35        6 1
  39        4       36 1
  40       31       37 1
  41        1       38 1
  42        1       39 1
  43        1       40 1
  44        2       41 1
  45        2       42 1
  46        5       43 1
  47        5       44 1
  48        5       45 1
  49       10       46 1
  50       10       47 1
  51       12       48 1
  52       12       49 1
  53       12       50 1
  54       17       51 1
  55       17       52 1
  56       19       53 1
  57       19       54 1
  58       19       55 1
  59       20       56 1
  60       20       57 1
  61       20       58 1
  62       21       59 1
  63       21       60 1
  64       21       61 1
  65       23       62 1
  66       23       63 1
  67       25       64 1
  68       26       65 1
  69       30       66 1
  70       33       67 1
  71       34       68 1

@<TRIPOS>MOLECULE

  68   71
SMALL
USER_CHARGES
@<TRIPOS>ATOM
   1 C1           6.6418     3.1717     7.3286 C.3          1    LIG   0.0000
   2 C2           5.1923     3.4011     6.9328 C.3          1    LIG   0.0000
   3 S3           4.9421     2.8662     5.2218 S.3          1    LIG   0.0000
   4 C4           3.1872     3.2169     4.9511 C.3          1    LIG   0.0000
   5 C5           2.9312     4.7024     5.1469 C.3          1    LIG   0.0000
   6 C6           2.8037     2.8192     3.5357 C.2          1    LIG   0.0000
   7 N7           3.3203     3.3017     2.4340 N.2          1    LIG   0.0000
   8 O8           2.7648     2.7409     1.4446 O.2          1    LIG   0.0000
   9 C9           1.8781     1.8781     1.8781 C.2          1    LIG   0.0000
  10 C10          1.0000     1.0000     1.0000 C.3          1    LIG   0.0000
  11 N11         -0.2538     1.7059     0.6992 N.pl3        1    LIG   0.0000
  12 C12         -1.4752     1.3882     1.4530 C.3          1    LIG   0.0000
  13 C13         -0.2846     2.6785    -0.3028 C.2          1    LIG   0.0000
  14 N14          0.7240     3.0584    -1.0477 N.2          1    LIG   0.0000
  15 N15          0.3176     4.0043    -1.8754 N.2          1    LIG   0.0000
  16 C16         -0.9572     4.2431    -1.6838 C.2          1    LIG   0.0000
  17 C17         -1.8114     5.2549    -2.4299 C.3          1    LIG   0.0000
  18 C18         -0.9586     5.9752    -3.4615 C.3          1    LIG   0.0000
  19 C19         -1.8129     6.9872    -4.2076 C.3          1    LIG   0.0000
  20 C20          0.1834     6.6941    -2.7619 C.3          1    LIG   0.0000
  21 C21         -0.3936     4.9649    -4.4465 C.3          1    LIG   0.0000
  22 N22         -1.3649     3.4128    -0.6862 N.pl3        1    LIG   0.0000
  23 C23         -2.7218     3.3244    -0.1302 C.3          1    LIG   0.0000
  24 C24         -3.5229     2.2960    -0.9107 C.ar         1    LIG   0.0000
  25 C25         -3.5512     2.3559    -2.2998 C.ar         1    LIG   0.0000
  26 C26         -4.2820     1.4178    -3.0215 C.ar         1    LIG   0.0000
  27 C27         -4.9794     0.4274    -2.3376 C.ar         1    LIG   0.0000
  28 C28         -5.7423    -0.5529    -3.0854 C.2          1    LIG   0.0000
  29 N29         -6.4658    -1.5711    -2.5415 N.2          1    LIG   0.0000
  30 C30         -7.0064    -2.2307    -3.5409 C.2          1    LIG   0.0000
  31 N31         -6.6160    -1.6211    -4.6970 N.pl3        1    LIG   0.0000
  32 N32         -5.8448    -0.6012    -4.3935 N.2          1    LIG   0.0000
  33 C33         -4.9574     0.3606    -0.9481 C.ar         1    LIG   0.0000
  34 C34         -4.2243     1.3024    -0.2345 C.ar         1    LIG   0.0000
  35 N35          1.8678     1.8977     3.1879 N.2          1    LIG   0.0000
  36 H            2.6383     2.6952     5.6042 H            1    LIG   0.0000
  37 H           -6.8735    -1.9032    -5.6211 H            1    LIG   0.0000
  38 H            6.7800     3.4672     8.2738 H            1    LIG   0.0000
  39 H            6.8593     2.1989     7.2482 H            1    LIG   0.0000
  40 H            7.2397     3.6979     6.7240 H            1    LIG   0.0000
  41 H            4.5943     2.8748     7.5373 H            1    LIG   0.0000
  42 H            4.9748     4.3739     7.0131 H            1    LIG   0.0000
  43 H            1.9617     4.8961     4.9973 H            1    LIG   0.0000
  44 H            3.1836     4.9641     6.0785 H            1    LIG   0.0000
  45 H            3.4801     5.2241     4.4938 H            1    LIG   0.0000
  46 H            1.4802     0.7954     0.1471 H            1    LIG   0.0000
  47 H            0.7954     0.1471     1.4802 H            1    LIG   0.0000
  48 H           -1.2759     0.6758     2.1257 H            1    LIG   0.0000
  49 H           -1.7999     2.2090     1.9229 H            1    LIG   0.0000
  50 H           -2.1808     1.0638     0.8230 H            1    LIG   0.0000
  51 H           -2.1831     5.9196    -1.7818 H            1    LIG   0.0000
  52 H           -2.5628     4.7819    -2.8901 H            1    LIG   0.0000
  53 H           -1.2518     7.4611    -4.8863 H            1    LIG   0.0000
  54 H           -2.5642     6.5142    -4.6678 H            1    LIG   0.0000
  55 H           -2.1846     7.6519    -3.5595 H            1    LIG   0.0000
  56 H            0.7445     7.1680    -3.4406 H            1    LIG   0.0000
  57 H           -0.1883     7.3588    -2.1139 H            1    LIG   0.0000
  58 H            0.7455     6.0284    -2.2711 H            1    LIG   0.0000
  59 H            0.1674     5.4388    -5.1252 H            1    LIG   0.0000
  60 H            0.1684     4.2991    -3.9557 H            1    LIG   0.0000
  61 H           -1.1450     4.4919    -4.9067 H            1    LIG   0.0000
  62 H           -3.1687     4.2164    -0.1981 H            1    LIG   0.0000
  63 H           -2.6714     3.0490     0.8298 H            1    LIG   0.0000
  64 H           -3.0463     3.0733    -2.7798 H            1    LIG   0.0000
  65 H           -4.3058     1.4551    -4.0205 H            1    LIG   0.0000
  66 H           -7.5972    -3.0341    -3.4673 H            1    LIG   0.0000
  67 H           -5.4630    -0.3564    -0.4681 H            1    LIG   0.0000
  68 H           -4.2011     1.2657     0.7646 H            1    LIG   0.0000
@<TRIPOS>BOND
   1        1        2 1
   2        2        3 1
   3        3        4 1
   4        4        5 1
   5        4        6 1
   6        6        7 2
   7        7        8 1
   8        8        9 1
   9        9       10 1
  10       10       11 1
  11       11       12 1
  12       11       13 1
  13       13       14 2
  14       14       15 1
  15       15       16 2
  16       16       17 1
  17       17       18 1
  18       18       19 1
  19       18       20 1
  20       18       21 1
  21       16       22 1
  22       22       13 1
  23       22       23 1
  24       23       24 1
  25       24       25 ar
  26       25       26 ar
  27       26       27 ar
  28       27       28 1
  29       28       29 1
  30       29       30 2
  31       30       31 1
  32       31       32 1
  33       32       28 2
  34       27       33 ar
  35       33       34 ar
  36       34       24 ar
  37        9       35 2
  38       35        6 1
  39        4       36 1
  40       31       37 1
  41        1       38 1
  42        1       39 1
  43        1       40 1
  44        2       41 1
  45        2       42 1
  46        5       43 1
  47        5       44 1
  48        5       45 1
  49       10       46 1
  50       10       47 1
  51       12       48 1
  52       12       49 1
  53       12       50 1
  54       17       51 1
  55       17       52 1
  56       19       53 1
  57       19       54 1
  58       19       55 1
  59       20       56 1
  60       20       57 1
  61       20       58 1
  62       21       59 1
  63       21       60 1
  64       21       61 1
  65       23       62 1
  66       23       63 1
  67       25       64 1
  68       26       65 1
  69       30       66 1
  70       33       67 1
  71       34       68 1

@<TRIPOS>MOLECULE

  68   71
SMALL
USER_CHARGES
@<TRIPOS>ATOM
   1 C1           6.6418     3.1717     7.3286 C.3          1    LIG   0.0000
   2 C2           5.1923     3.4011     6.9328 C.3          1    LIG   0.0000
   3 S3           4.9421     2.8662     5.2218 S.3          1    LIG   0.0000
   4 C4           3.1872     3.2169     4.9511 C.3          1    LIG   0.0000
   5 C5           2.9312     4.7024     5.1469 C.3          1    LIG   0.0000
   6 C6           2.8037     2.8192     3.5357 C.2          1    LIG   0.0000
   7 N7           3.3203     3.3017     2.4340 N.2          1    LIG   0.0000
   8 O8           2.7648     2.7409     1.4446 O.2          1    LIG   0.0000
   9 C9           1.8781     1.8781     1.8781 C.2          1    LIG   0.0000
  10 C10          1.0000     1.0000     1.0000 C.3          1    LIG   0.0000
  11 N11         -0.2538     1.7059     0.6992 N.pl3        1    LIG   0.0000
  12 C12         -0.2863     2.7295    -0.3553 C.3          1    LIG   0.0000
  13 C13         -1.4144     1.4041     1.4154 C.2          1    LIG   0.0000
  14 N14         -1.8135     1.9762     2.5244 N.2          1    LIG   0.0000
  15 N15         -2.9476     1.4212     2.9129 N.2          1    LIG   0.0000
  16 C16         -3.3009     0.4908     2.0594 C.2          1    LIG   0.0000
  17 C17         -4.5414    -0.3840     2.1350 C.3          1    LIG   0.0000
  18 C18         -5.3422    -0.0214     3.3751 C.3          1    LIG   0.0000
  19 C19         -6.5828    -0.8964     3.4507 C.3          1    LIG   0.0000
  20 C20         -4.4885    -0.2447     4.6127 C.3          1    LIG   0.0000
  21 C21         -5.7560     1.4393     3.3018 C.3          1    LIG   0.0000
  22 N22         -2.3404     0.4586     1.0965 N.pl3        1    LIG   0.0000
  23 C23         -2.3123    -0.4307    -0.0725 C.3          1    LIG   0.0000
  24 C24         -2.0363    -1.8544     0.3806 C.ar         1    LIG   0.0000
  25 C25         -0.7241    -2.3064     0.4678 C.ar         1    LIG   0.0000
  26 C26         -0.4631    -3.6084     0.8821 C.ar         1    LIG   0.0000
  27 C27         -1.5268    -4.4449     1.2044 C.ar         1    LIG   0.0000
  28 C28         -1.2600    -5.8028     1.6371 C.2          1    LIG   0.0000
  29 N29         -2.2058    -6.7207     1.9820 N.2          1    LIG   0.0000
  30 C30         -1.5670    -7.8205     2.3117 C.2          1    LIG   0.0000
  31 N31         -0.2317    -7.5800     2.1714 N.pl3        1    LIG   0.0000
  32 N32         -0.0693    -6.3426     1.7599 N.2          1    LIG   0.0000
  33 C33         -2.8428    -4.0014     1.1191 C.ar         1    LIG   0.0000
  34 C34         -3.0945    -2.6982     0.7039 C.ar         1    LIG   0.0000
  35 N35          1.8678     1.8977     3.1879 N.2          1    LIG   0.0000
  36 H            2.6383     2.6952     5.6042 H            1    LIG   0.0000
  37 H            0.5014    -8.2359     2.3515 H            1    LIG   0.0000
  38 H            6.7800     3.4672     8.2738 H            1    LIG   0.0000
  39 H            6.8593     2.1989     7.2482 H            1    LIG   0.0000
  40 H            7.2397     3.6979     6.7240 H            1    LIG   0.0000
  41 H            4.5943     2.8748     7.5373 H            1    LIG   0.0000
  42 H            4.9748     4.3739     7.0131 H            1    LIG   0.0000
  43 H            1.9617     4.8961     4.9973 H            1    LIG   0.0000
  44 H            3.1836     4.9641     6.0785 H            1    LIG   0.0000
  45 H            3.4801     5.2241     4.4938 H            1    LIG   0.0000
  46 H            1.4802     0.7954     0.1471 H            1    LIG   0.0000
  47 H            0.7954     0.1471     1.4802 H            1    LIG   0.0000
  48 H            0.6230     2.8179    -0.7622 H            1    LIG   0.0000
  49 H           -0.9424     2.4609    -1.0606 H            1    LIG   0.0000
  50 H           -0.5614     3.6062     0.0394 H            1    LIG   0.0000
  51 H           -4.2691    -1.3450     2.1832 H            1    LIG   0.0000
  52 H           -5.1030    -0.2371     1.3208 H            1    LIG   0.0000
  53 H           -7.1097    -0.6579     4.2665 H            1    LIG   0.0000
  54 H           -7.1444    -0.7495     2.6365 H            1    LIG   0.0000
  55 H           -6.3105    -1.8574     3.4989 H            1    LIG   0.0000
  56 H           -5.0153    -0.0062     5.4285 H            1    LIG   0.0000
  57 H           -4.2162    -1.2057     4.6609 H            1    LIG   0.0000
  58 H           -3.6723     0.3309     4.5629 H            1    LIG   0.0000
  59 H           -6.2829     1.6778     4.1176 H            1    LIG   0.0000
  60 H           -4.9398     2.0149     3.2520 H            1    LIG   0.0000
  61 H           -6.3177     1.5862     2.4876 H            1    LIG   0.0000
  62 H           -1.5915    -0.1348    -0.6993 H            1    LIG   0.0000
  63 H           -3.1957    -0.3950    -0.5398 H            1    LIG   0.0000
  64 H            0.0319    -1.6956     0.2326 H            1    LIG   0.0000
  65 H            0.4783    -3.9393     0.9476 H            1    LIG   0.0000
  66 H           -1.9842    -8.6785     2.6112 H            1    LIG   0.0000
  67 H           -3.5988    -4.6125     1.3536 H            1    LIG   0.0000
  68 H           -4.0359    -2.3676     0.6376 H            1    LIG   0.0000
@<TRIPOS>BOND
   1        1        2 1
   2        2        3 1
   3        3        4 1
   4        4        5 1
   5        4        6 1
   6        6        7 2
   7        7        8 1
   8        8        9 1
   9        9       10 1
  10       10       11 1
  11       11       12 1
  12       11       13 1
  13       13       14 2
  14       14       15 1
  15       15       16 2
  16       16       17 1
  17       17       18 1
  18       18       19 1
  19       18       20 1
  20       18       21 1
  21       16       22 1
  22       22       13 1
  23       22       23 1
  24       23       24 1
  25       24       25 ar
  26       25       26 ar
  27       26       27 ar
  28       27       28 1
  29       28       29 1
  30       29       30 2
  31       30       31 1
  32       31       32 1
  33       32       28 2
  34       27       33 ar
  35       33       34 ar
  36       34       24 ar
  37        9       35 2
  38       35        6 1
  39        4       36 1
  40       31       37 1
  41        1       38 1
  42        1       39 1
  43        1       40 1
  44        2       41 1
  45        2       42 1
  46        5       43 1
  47        5       44 1
  48        5       45 1
  49       10       46 1
  50       10       47 1
  51       12       48 1
  52       12       49 1
  53       12       50 1
  54       17       51 1
  55       17       52 1
  56       19       53 1
  57       19       54 1
  58       19       55 1
  59       20       56 1
  60       20       57 1
  61       20       58 1
  62       21       59 1
  63       21       60 1
  64       21       61 1
  65       23       62 1
  66       23       63 1
  67       25       64 1
  68       26       65 1
  69       30       66 1
  70       33       67 1
  71       34       68 1

@<TRIPOS>MOLECULE

  68   71
SMALL
USER_CHARGES
@<TRIPOS>ATOM
   1 C1           6.6418     3.1717     7.3286 C.3          1    LIG   0.0000
   2 C2           5.1923     3.4011     6.9328 C.3          1    LIG   0.0000
   3 S3           4.9421     2.8662     5.2218 S.3          1    LIG   0.0000
   4 C4           3.1872     3.2169     4.9511 C.3          1    LIG   0.0000
   5 C5           2.9312     4.7024     5.1469 C.3          1    LIG   0.0000
   6 C6           2.8037     2.8192     3.5357 C.2          1    LIG   0.0000
   7 N7           3.3203     3.3017     2.4340 N.2          1    LIG   0.0000
   8 O8           2.7648     2.7409     1.4446 O.2          1    LIG   0.0000
   9 C9           1.8781     1.8781     1.8781 C.2          1    LIG   0.0000
  10 C10          1.0000     1.0000     1.0000 C.3          1    LIG   0.0000
  11 N11         -0.2538     1.7059     0.6992 N.pl3        1    LIG   0.0000
  12 C12         -0.2863     2.7295    -0.3553 C.3          1    LIG   0.0000
  13 C13         -1.4144     1.4041     1.4154 C.2          1    LIG   0.0000
  14 N14         -1.5266     0.5194     2.3753 N.2          1    LIG   0.0000
  15 N15         -2.7754     0.5055     2.8060 N.2          1    LIG   0.0000
  16 C16         -3.4842     1.3835     2.1386 C.2          1    LIG   0.0000
  17 C17         -4.9622     1.6847     2.3251 C.3          1    LIG   0.0000
  18 C18         -5.5243     0.8007     3.4264 C.3          1    LIG   0.0000
  19 C19         -7.0024     1.1020     3.6130 C.3          1    LIG   0.0000
  20 C20         -5.3493    -0.6596     3.0429 C.3          1    LIG   0.0000
  21 C21         -4.7833     1.0759     4.7248 C.3          1    LIG   0.0000
  22 N22         -2.6413     1.9687     1.2454 N.pl3        1    LIG   0.0000
  23 C23         -2.9922     3.0188     0.2796 C.3          1    LIG   0.0000
  24 C24         -2.3439     4.3279     0.6971 C.ar         1    LIG   0.0000
  25 C25         -1.5619     4.3726     1.8461 C.ar         1    LIG   0.0000
  26 C26         -0.9647     5.5673     2.2348 C.ar         1    LIG   0.0000
  27 C27         -1.1613     6.7078     1.4629 C.ar         1    LIG   0.0000
  28 C28         -0.5407     7.9553     1.8637 C.2          1    LIG   0.0000
  29 N29         -0.6509     9.1399     1.1997 N.2          1    LIG   0.0000
  30 C30          0.0496    10.0222     1.8758 C.2          1    LIG   0.0000
  31 N31          0.5906     9.3825     2.9522 N.pl3        1    LIG   0.0000
  32 N32          0.2173     8.1229     2.9227 N.2          1    LIG   0.0000
  33 C33         -1.9430     6.6723     0.3125 C.ar         1    LIG   0.0000
  34 C34         -2.5362     5.4737    -0.0687 C.ar         1    LIG   0.0000
  35 N35          1.8678     1.8977     3.1879 N.2          1    LIG   0.0000
  36 H            2.6383     2.6952     5.6042 H            1    LIG   0.0000
  37 H            1.1738     9.8021     3.6478 H            1    LIG   0.0000
  38 H            6.7800     3.4672     8.2738 H            1    LIG   0.0000
  39 H            6.8593     2.1989     7.2482 H            1    LIG   0.0000
  40 H            7.2397     3.6979     6.7240 H            1    LIG   0.0000
  41 H            4.5943     2.8748     7.5373 H            1    LIG   0.0000
  42 H            4.9748     4.3739     7.0131 H            1    LIG   0.0000
  43 H            1.9617     4.8961     4.9973 H            1    LIG   0.0000
  44 H            3.1836     4.9641     6.0785 H            1    LIG   0.0000
  45 H            3.4801     5.2241     4.4938 H            1    LIG   0.0000
  46 H            1.4802     0.7954     0.1471 H            1    LIG   0.0000
  47 H            0.7954     0.1471     1.4802 H            1    LIG   0.0000
  48 H            0.6230     2.8179    -0.7622 H            1    LIG   0.0000
  49 H           -0.9424     2.4609    -1.0606 H            1    LIG   0.0000
  50 H           -0.5614     3.6062     0.0394 H            1    LIG   0.0000
  51 H           -5.4496     1.5037     1.4709 H            1    LIG   0.0000
  52 H           -5.0773     2.6455     2.5775 H            1    LIG   0.0000
  53 H           -7.3723     0.5204     4.3376 H            1    LIG   0.0000
  54 H           -7.1176     2.0628     3.8654 H            1    LIG   0.0000
  55 H           -7.4899     0.9210     2.7588 H            1    LIG   0.0000
  56 H           -5.7192    -1.2412     3.7674 H            1    LIG   0.0000
  57 H           -5.8368    -0.8406     2.1887 H            1    LIG   0.0000
  58 H           -4.3769    -0.8578     2.9201 H            1    LIG   0.0000
  59 H           -5.1532     0.4943     5.4493 H            1    LIG   0.0000
  60 H           -3.8109     0.8777     4.6020 H            1    LIG   0.0000
  61 H           -4.8985     2.0366     4.9771 H            1    LIG   0.0000
  62 H           -3.9856     3.1314     0.2560 H            1    LIG   0.0000
  63 H           -2.6644     2.7592    -0.6288 H            1    LIG   0.0000
  64 H           -1.4288     3.5460     2.3929 H            1    LIG   0.0000
  65 H           -0.4006     5.6059     3.0596 H            1    LIG   0.0000
  66 H            0.1652    10.9879     1.6432 H            1    LIG   0.0000
  67 H           -2.0766     7.4991    -0.2339 H            1    LIG   0.0000
  68 H           -3.1010     5.4353    -0.8930 H            1    LIG   0.0000
@<TRIPOS>BOND
   1        1        2 1
   2        2        3 1
   3        3        4 1
   4        4        5 1
   5        4        6 1
   6        6        7 2
   7        7        8 1
   8        8        9 1
   9        9       10 1
  10       10       11 1
  11       11       12 1
  12       11       13 1
  13       13       14 2
  14       14       15 1
  15       15       16 2
  16       16       17 1
  17       17       18 1
  18       18       19 1
  19       18       20 1
  20       18       21 1
  21       16       22 1
  22       22       13 1
  23       22       23 1
  24       23       24 1
  25       24       25 ar
  26       25       26 ar
  27       26       27 ar
  28       27       28 1
  29       28       29 1
  30       29       30 2
  31       30       31 1
  32       31       32 1
  33       32       28 2
  34       27       33 ar
  35       33       34 ar
  36       34       24 ar
  37        9       35 2
  38       35        6 1
  39        4       36 1
  40       31       37 1
  41        1       38 1
  42        1       39 1
  43        1       40 1
  44        2       41 1
  45        2       42 1
  46        5       43 1
  47        5       44 1
  48        5       45 1
  49       10       46 1
  50       10       47 1
  51       12       48 1
  52       12       49 1
  53       12       50 1
  54       17       51 1
  55       17       52 1
  56       19       53 1
  57       19       54 1
  58       19       55 1
  59       20       56 1
  60       20       57 1
  61       20       58 1
  62       21       59 1
  63       21       60 1
  64       21       61 1
  65       23       62 1
  66       23       63 1
  67       25       64 1
  68       26       65 1
  69       30       66 1
  70       33       67 1
  71       34       68 1

@<TRIPOS>MOLECULE

  68   71
SMALL
USER_CHARGES
@<TRIPOS>ATOM
   1 C1           6.6418     3.1717     7.3286 C.3          1    LIG   0.0000
   2 C2           5.1923     3.4011     6.9328 C.3          1    LIG   0.0000
   3 S3           4.9421     2.8662     5.2218 S.3          1    LIG   0.0000
   4 C4           3.1872     3.2169     4.9511 C.3          1    LIG   0.0000
   5 C5           2.9312     4.7024     5.1469 C.3          1    LIG   0.0000
   6 C6           2.8037     2.8192     3.5357 C.2          1    LIG   0.0000
   7 N7           3.3203     3.3017     2.4340 N.2          1    LIG   0.0000
   8 O8           2.7648     2.7409     1.4446 O.2          1    LIG   0.0000
   9 C9           1.8781     1.8781     1.8781 C.2          1    LIG   0.0000
  10 C10          1.0000     1.0000     1.0000 C.3          1    LIG   0.0000
  11 N11         -0.2538     1.7059     0.6992 N.pl3        1    LIG   0.0000
  12 C12         -0.7261     1.8060    -0.6893 C.3          1    LIG   0.0000
  13 C13         -0.9964     2.2816     1.7327 C.2          1    LIG   0.0000
  14 N14         -0.6940     2.2676     3.0074 N.2          1    LIG   0.0000
  15 N15         -1.6361     2.9022     3.6818 N.2          1    LIG   0.0000
  16 C16         -2.5539     3.3411     2.8549 C.2          1    LIG   0.0000
  17 C17         -3.8046     4.1228     3.2217 C.3          1    LIG   0.0000
  18 C18         -3.8475     4.3330     4.7265 C.3          1    LIG   0.0000
  19 C19         -5.0983     5.1148     5.0934 C.3          1    LIG   0.0000
  20 C20         -3.8698     2.9838     5.4262 C.3          1    LIG   0.0000
  21 C21         -2.6172     5.1107     5.1647 C.3          1    LIG   0.0000
  22 N22         -2.1712     2.9577     1.6069 N.pl3        1    LIG   0.0000
  23 C23         -2.8925     3.2284     0.3560 C.3          1    LIG   0.0000
  24 C24         -4.1682     2.4041     0.3184 C.ar         1    LIG   0.0000
  25 C25         -4.1478     1.1299    -0.2384 C.ar         1    LIG   0.0000
  26 C26         -5.3115     0.3689    -0.2763 C.ar         1    LIG   0.0000
  27 C27         -6.4869     0.8983     0.2463 C.ar         1    LIG   0.0000
  28 C28         -7.7025     0.1088     0.2095 C.2          1    LIG   0.0000
  29 N29         -8.7169     0.1802     1.1160 N.2          1    LIG   0.0000
  30 C30         -9.6292    -0.6854     0.7359 C.2          1    LIG   0.0000
  31 N31         -9.1773    -1.2890    -0.4008 N.pl3        1    LIG   0.0000
  32 N32         -7.9999    -0.7888    -0.7015 N.2          1    LIG   0.0000
  33 C33         -6.5167     2.1725     0.8043 C.ar         1    LIG   0.0000
  34 C34         -5.3487     2.9265     0.8380 C.ar         1    LIG   0.0000
  35 N35          1.8678     1.8977     3.1879 N.2          1    LIG   0.0000
  36 H            2.6383     2.6952     5.6042 H            1    LIG   0.0000
  37 H           -9.6612    -1.9943    -0.9188 H            1    LIG   0.0000
  38 H            6.7800     3.4672     8.2738 H            1    LIG   0.0000
  39 H            6.8593     2.1989     7.2482 H            1    LIG   0.0000
  40 H            7.2397     3.6979     6.7240 H            1    LIG   0.0000
  41 H            4.5943     2.8748     7.5373 H            1    LIG   0.0000
  42 H            4.9748     4.3739     7.0131 H            1    LIG   0.0000
  43 H            1.9617     4.8961     4.9973 H            1    LIG   0.0000
  44 H            3.1836     4.9641     6.0785 H            1    LIG   0.0000
  45 H            3.4801     5.2241     4.4938 H            1    LIG   0.0000
  46 H            1.4802     0.7954     0.1471 H            1    LIG   0.0000
  47 H            0.7954     0.1471     1.4802 H            1    LIG   0.0000
  48 H           -0.0795     1.3430    -1.2955 H            1    LIG   0.0000
  49 H           -1.6245     1.3740    -0.7677 H            1    LIG   0.0000
  50 H           -0.7955     2.7692    -0.9491 H            1    LIG   0.0000
  51 H           -4.6140     3.6111     2.9335 H            1    LIG   0.0000
  52 H           -3.7899     5.0104     2.7614 H            1    LIG   0.0000
  53 H           -5.1265     5.2532     6.0834 H            1    LIG   0.0000
  54 H           -5.0836     6.0025     4.6331 H            1    LIG   0.0000
  55 H           -5.9077     4.6032     4.8051 H            1    LIG   0.0000
  56 H           -3.8980     3.1222     6.4162 H            1    LIG   0.0000
  57 H           -4.6792     2.4722     5.1379 H            1    LIG   0.0000
  58 H           -3.0469     2.4695     5.1848 H            1    LIG   0.0000
  59 H           -2.6454     5.2491     6.1547 H            1    LIG   0.0000
  60 H           -1.7943     4.5964     4.9233 H            1    LIG   0.0000
  61 H           -2.6025     5.9984     4.7043 H            1    LIG   0.0000
  62 H           -2.3141     2.9832    -0.4220 H            1    LIG   0.0000
  63 H           -3.1222     4.2005     0.3073 H            1    LIG   0.0000
  64 H           -3.2966     0.7608    -0.6115 H            1    LIG   0.0000
  65 H           -5.3032    -0.5483    -0.6747 H            1    LIG   0.0000
  66 H          -10.4977    -0.8686     1.1965 H            1    LIG   0.0000
  67 H           -7.3681     2.5418     1.1767 H            1    LIG   0.0000
  68 H           -5.3571     3.8440     1.2356 H            1    LIG   0.0000
@<TRIPOS>BOND
   1        1        2 1
   2        2        3 1
   3        3        4 1
   4        4        5 1
   5        4        6 1
   6        6        7 2
   7        7        8 1
   8        8        9 1
   9        9       10 1
  10       10       11 1
  11       11       12 1
  12       11       13 1
  13       13       14 2
  14       14       15 1
  15       15       16 2
  16       16       17 1
  17       17       18 1
  18       18       19 1
  19       18       20 1
  20       18       21 1
  21       16       22 1
  22       22       13 1
  23       22       23 1
  24       23       24 1
  25       24       25 ar
  26       25       26 ar
  27       26       27 ar
  28       27       28 1
  29       28       29 1
  30       29       30 2
  31       30       31 1
  32       31       32 1
  33       32       28 2
  34       27       33 ar
  35       33       34 ar
  36       34       24 ar
  37        9       35 2
  38       35        6 1
  39        4       36 1
  40       31       37 1
  41        1       38 1
  42        1       39 1
  43        1       40 1
  44        2       41 1
  45        2       42 1
  46        5       43 1
  47        5       44 1
  48        5       45 1
  49       10       46 1
  50       10       47 1
  51       12       48 1
  52       12       49 1
  53       12       50 1
  54       17       51 1
  55       17       52 1
  56       19       53 1
  57       19       54 1
  58       19       55 1
  59       20       56 1
  60       20       57 1
  61       20       58 1
  62       21       59 1
  63       21       60 1
  64       21       61 1
  65       23       62 1
  66       23       63 1
  67       25       64 1
  68       26       65 1
  69       30       66 1
  70       33       67 1
  71       34       68 1

@<TRIPOS>MOLECULE

  68   71
SMALL
USER_CHARGES
@<TRIPOS>ATOM
   1 C1           6.6418     3.1717     7.3286 C.3          1    LIG   0.0000
   2 C2           5.1923     3.4011     6.9328 C.3          1    LIG   0.0000
   3 S3           4.9421     2.8662     5.2218 S.3          1    LIG   0.0000
   4 C4           3.1872     3.2169     4.9511 C.3          1    LIG   0.0000
   5 C5           2.9312     4.7024     5.1469 C.3          1    LIG   0.0000
   6 C6           2.8037     2.8192     3.5357 C.2          1    LIG   0.0000
   7 N7           3.3203     3.3017     2.4340 N.2          1    LIG   0.0000
   8 O8           2.7648     2.7409     1.4446 O.2          1    LIG   0.0000
   9 C9           1.8781     1.8781     1.8781 C.2          1    LIG   0.0000
  10 C10          1.0000     1.0000     1.0000 C.3          1    LIG   0.0000
  11 N11         -0.2538     1.7059     0.6992 N.pl3        1    LIG   0.0000
  12 C12         -0.4851     3.0546     1.2363 C.3          1    LIG   0.0000
  13 C13         -1.2255     1.0952    -0.0969 C.2          1    LIG   0.0000
  14 N14         -2.3812     1.6071    -0.4417 N.2          1    LIG   0.0000
  15 N15         -3.0346     0.7347    -1.1881 N.2          1    LIG   0.0000
  16 C16         -2.3099    -0.3468    -1.3428 C.2          1    LIG   0.0000
  17 C17         -2.6918    -1.5877    -2.1329 C.3          1    LIG   0.0000
  18 C18         -4.0729    -1.3976    -2.7385 C.3          1    LIG   0.0000
  19 C19         -4.4548    -2.6387    -3.5287 C.3          1    LIG   0.0000
  20 C20         -5.0863    -1.1720    -1.6284 C.3          1    LIG   0.0000
  21 C21         -4.0586    -0.1921    -3.6643 C.3          1    LIG   0.0000
  22 N22         -1.1530    -0.1437    -0.6564 N.pl3        1    LIG   0.0000
  23 C23         -0.0326    -1.0873    -0.5447 C.3          1    LIG   0.0000
  24 C24          0.9469    -0.8473    -1.6811 C.ar         1    LIG   0.0000
  25 C25          0.4790    -0.7743    -2.9887 C.ar         1    LIG   0.0000
  26 C26          1.3694    -0.5546    -4.0346 C.ar         1    LIG   0.0000
  27 C27          2.7244    -0.4111    -3.7546 C.ar         1    LIG   0.0000
  28 C28          3.6564    -0.1815    -4.8413 C.2          1    LIG   0.0000
  29 N29          5.0027    -0.0232    -4.7053 N.2          1    LIG   0.0000
  30 C30          5.4885     0.1604    -5.9121 C.2          1    LIG   0.0000
  31 N31          4.4443     0.1165    -6.7885 N.pl3        1    LIG   0.0000
  32 N32          3.3373    -0.0921    -6.1118 N.2          1    LIG   0.0000
  33 C33          3.2013    -0.4837    -2.4495 C.ar         1    LIG   0.0000
  34 C34          2.3042    -0.7038    -1.4100 C.ar         1    LIG   0.0000
  35 N35          1.8678     1.8977     3.1879 N.2          1    LIG   0.0000
  36 H            2.6383     2.6952     5.6042 H            1    LIG   0.0000
  37 H            4.5101     0.2249    -7.7805 H            1    LIG   0.0000
  38 H            6.7800     3.4672     8.2738 H            1    LIG   0.0000
  39 H            6.8593     2.1989     7.2482 H            1    LIG   0.0000
  40 H            7.2397     3.6979     6.7240 H            1    LIG   0.0000
  41 H            4.5943     2.8748     7.5373 H            1    LIG   0.0000
  42 H            4.9748     4.3739     7.0131 H            1    LIG   0.0000
  43 H            1.9617     4.8961     4.9973 H            1    LIG   0.0000
  44 H            3.1836     4.9641     6.0785 H            1    LIG   0.0000
  45 H            3.4801     5.2241     4.4938 H            1    LIG   0.0000
  46 H            1.4802     0.7954     0.1471 H            1    LIG   0.0000
  47 H            0.7954     0.1471     1.4802 H            1    LIG   0.0000
  48 H            0.3054     3.3371     1.7797 H            1    LIG   0.0000
  49 H           -0.6166     3.6963     0.4807 H            1    LIG   0.0000
  50 H           -1.3014     3.0480     1.8138 H            1    LIG   0.0000
  51 H           -2.7012    -2.3808    -1.5239 H            1    LIG   0.0000
  52 H           -2.0250    -1.7362    -2.8632 H            1    LIG   0.0000
  53 H           -5.3634    -2.5136    -3.9271 H            1    LIG   0.0000
  54 H           -3.7881    -2.7871    -4.2590 H            1    LIG   0.0000
  55 H           -4.4642    -3.4318    -2.9197 H            1    LIG   0.0000
  56 H           -5.9949    -1.0469    -2.0269 H            1    LIG   0.0000
  57 H           -5.0957    -1.9651    -1.0194 H            1    LIG   0.0000
  58 H           -4.8350    -0.3555    -1.1086 H            1    LIG   0.0000
  59 H           -4.9672    -0.0671    -4.0627 H            1    LIG   0.0000
  60 H           -3.8073     0.6244    -3.1444 H            1    LIG   0.0000
  61 H           -3.3919    -0.3406    -4.3946 H            1    LIG   0.0000
  62 H           -0.3792    -2.0239    -0.5956 H            1    LIG   0.0000
  63 H            0.4321    -0.9509     0.3302 H            1    LIG   0.0000
  64 H           -0.4974    -0.8799    -3.1770 H            1    LIG   0.0000
  65 H            1.0392    -0.5003    -4.9769 H            1    LIG   0.0000
  66 H            6.4499     0.3060    -6.1458 H            1    LIG   0.0000
  67 H            4.1778    -0.3789    -2.2613 H            1    LIG   0.0000
  68 H            2.6344    -0.7588    -0.4677 H            1    LIG   0.0000
@<TRIPOS>BOND
   1        1        2 1
   2        2        3 1
   3        3        4 1
   4        4        5 1
   5        4        6 1
   6        6        7 2
   7        7        8 1
   8        8        9 1
   9        9       10 1
  10       10       11 1
  11       11       12 1
  12       11       13 1
  13       13       14 2
  14       14       15 1
  15       15       16 2
  16       16       17 1
  17       17       18 1
  18       18       19 1
  19       18       20 1
  20       18       21 1
  21       16       22 1
  22       22       13 1
  23       22       23 1
  24       23       24 1
  25       24       25 ar
  26       25       26 ar
  27       26       27 ar
  28       27       28 1
  29       28       29 1
  30       29       30 2
  31       30       31 1
  32       31       32 1
  33       32       28 2
  34       27       33 ar
  35       33       34 ar
  36       34       24 ar
  37        9       35 2
  38       35        6 1
  39        4       36 1
  40       31       37 1
  41        1       38 1
  42        1       39 1
  43        1       40 1
  44        2       41 1
  45        2       42 1
  46        5       43 1
  47        5       44 1
  48        5       45 1
  49       10       46 1
  50       10       47 1
  51       12       48 1
  52       12       49 1
  53       12       50 1
  54       17       51 1
  55       17       52 1
  56       19       53 1
  57       19       54 1
  58       19       55 1
  59       20       56 1
  60       20       57 1
  61       20       58 1
  62       21       59 1
  63       21       60 1
  64       21       61 1
  65       23       62 1
  66       23       63 1
  67       25       64 1
  68       26       65 1
  69       30       66 1
  70       33       67 1
  71       34       68 1

@<TRIPOS>MOLECULE

  68   71
SMALL
USER_CHARGES
@<TRIPOS>ATOM
   1 C1           6.6418     3.1717     7.3286 C.3          1    LIG   0.0000
   2 C2           5.1923     3.4011     6.9328 C.3          1    LIG   0.0000
   3 S3           4.9421     2.8662     5.2218 S.3          1    LIG   0.0000
   4 C4           3.1872     3.2169     4.9511 C.3          1    LIG   0.0000
   5 C5           2.9312     4.7024     5.1469 C.3          1    LIG   0.0000
   6 C6           2.8037     2.8192     3.5357 C.2          1    LIG   0.0000
   7 N7           3.3203     3.3017     2.4340 N.2          1    LIG   0.0000
   8 O8           2.7648     2.7409     1.4446 O.2          1    LIG   0.0000
   9 C9           1.8781     1.8781     1.8781 C.2          1    LIG   0.0000
  10 C10          1.0000     1.0000     1.0000 C.3          1    LIG   0.0000
  11 N11         -0.2538     1.7059     0.6992 N.pl3        1    LIG   0.0000
  12 C12         -0.4851     3.0546     1.2363 C.3          1    LIG   0.0000
  13 C13         -1.2255     1.0952    -0.0969 C.2          1    LIG   0.0000
  14 N14         -2.3812     1.6071    -0.4417 N.2          1    LIG   0.0000
  15 N15         -3.0346     0.7347    -1.1881 N.2          1    LIG   0.0000
  16 C16         -2.3099    -0.3468    -1.3428 C.2          1    LIG   0.0000
  17 C17         -2.6918    -1.5877    -2.1329 C.3          1    LIG   0.0000
  18 C18         -4.0729    -1.3976    -2.7385 C.3          1    LIG   0.0000
  19 C19         -4.4548    -2.6387    -3.5287 C.3          1    LIG   0.0000
  20 C20         -5.0863    -1.1720    -1.6284 C.3          1    LIG   0.0000
  21 C21         -4.0586    -0.1921    -3.6643 C.3          1    LIG   0.0000
  22 N22         -1.1530    -0.1437    -0.6564 N.pl3        1    LIG   0.0000
  23 C23         -0.0326    -1.0873    -0.5447 C.3          1    LIG   0.0000
  24 C24         -0.2395    -1.9779     0.6687 C.ar         1    LIG   0.0000
  25 C25         -0.5391    -1.4045     1.8998 C.ar         1    LIG   0.0000
  26 C26         -0.7303    -2.2131     3.0154 C.ar         1    LIG   0.0000
  27 C27         -0.6170    -3.5931     2.8818 C.ar         1    LIG   0.0000
  28 C28         -0.8157    -4.4402     4.0416 C.2          1    LIG   0.0000
  29 N29         -0.7352    -5.8001     4.0479 N.2          1    LIG   0.0000
  30 C30         -0.9757    -6.1904     5.2792 C.2          1    LIG   0.0000
  31 N31         -1.2049    -5.0740     6.0287 N.pl3        1    LIG   0.0000
  32 N32         -1.1029    -4.0191     5.2517 N.2          1    LIG   0.0000
  33 C33         -0.3166    -4.1751     1.6543 C.ar         1    LIG   0.0000
  34 C34         -0.1270    -3.3592     0.5442 C.ar         1    LIG   0.0000
  35 N35          1.8678     1.8977     3.1879 N.2          1    LIG   0.0000
  36 H            2.6383     2.6952     5.6042 H            1    LIG   0.0000
  37 H           -1.4154    -5.0605     7.0061 H            1    LIG   0.0000
  38 H            6.7800     3.4672     8.2738 H            1    LIG   0.0000
  39 H            6.8593     2.1989     7.2482 H            1    LIG   0.0000
  40 H            7.2397     3.6979     6.7240 H            1    LIG   0.0000
  41 H            4.5943     2.8748     7.5373 H            1    LIG   0.0000
  42 H            4.9748     4.3739     7.0131 H            1    LIG   0.0000
  43 H            1.9617     4.8961     4.9973 H            1    LIG   0.0000
  44 H            3.1836     4.9641     6.0785 H            1    LIG   0.0000
  45 H            3.4801     5.2241     4.4938 H            1    LIG   0.0000
  46 H            1.4802     0.7954     0.1471 H            1    LIG   0.0000
  47 H            0.7954     0.1471     1.4802 H            1    LIG   0.0000
  48 H            0.3054     3.3371     1.7797 H            1    LIG   0.0000
  49 H           -0.6166     3.6963     0.4807 H            1    LIG   0.0000
  50 H           -1.3014     3.0480     1.8138 H            1    LIG   0.0000
  51 H           -2.7012    -2.3808    -1.5239 H            1    LIG   0.0000
  52 H           -2.0250    -1.7362    -2.8632 H            1    LIG   0.0000
  53 H           -5.3634    -2.5136    -3.9271 H            1    LIG   0.0000
  54 H           -3.7881    -2.7871    -4.2590 H            1    LIG   0.0000
  55 H           -4.4642    -3.4318    -2.9197 H            1    LIG   0.0000
  56 H           -5.9949    -1.0469    -2.0269 H            1    LIG   0.0000
  57 H           -5.0957    -1.9651    -1.0194 H            1    LIG   0.0000
  58 H           -4.8350    -0.3555    -1.1086 H            1    LIG   0.0000
  59 H           -4.9672    -0.0671    -4.0627 H            1    LIG   0.0000
  60 H           -3.8073     0.6244    -3.1444 H            1    LIG   0.0000
  61 H           -3.3919    -0.3406    -4.3946 H            1    LIG   0.0000
  62 H            0.8225    -0.5789    -0.4431 H            1    LIG   0.0000
  63 H            0.0112    -1.6519    -1.3689 H            1    LIG   0.0000
  64 H           -0.6171    -0.4111     1.9830 H            1    LIG   0.0000
  65 H           -0.9467    -1.8070     3.9033 H            1    LIG   0.0000
  66 H           -0.9884    -7.1349     5.6075 H            1    LIG   0.0000
  67 H           -0.2379    -5.1685     1.5712 H            1    LIG   0.0000
  68 H            0.0902    -3.7652    -0.3435 H            1    LIG   0.0000
@<TRIPOS>BOND
   1        1        2 1
   2        2        3 1
   3        3        4 1
   4        4        5 1
   5        4        6 1
   6        6        7 2
   7        7        8 1
   8        8        9 1
   9        9       10 1
  10       10       11 1
  11       11       12 1
  12       11       13 1
  13       13       14 2
  14       14       15 1
  15       15       16 2
  16       16       17 1
  17       17       18 1
  18       18       19 1
  19       18       20 1
  20       18       21 1
  21       16       22 1
  22       22       13 1
  23       22       23 1
  24       23       24 1
  25       24       25 ar
  26       25       26 ar
  27       26       27 ar
  28       27       28 1
  29       28       29 1
  30       29       30 2
  31       30       31 1
  32       31       32 1
  33       32       28 2
  34       27       33 ar
  35       33       34 ar
  36       34       24 ar
  37        9       35 2
  38       35        6 1
  39        4       36 1
  40       31       37 1
  41        1       38 1
  42        1       39 1
  43        1       40 1
  44        2       41 1
  45        2       42 1
  46        5       43 1
  47        5       44 1
  48        5       45 1
  49       10       46 1
  50       10       47 1
  51       12       48 1
  52       12       49 1
  53       12       50 1
  54       17       51 1
  55       17       52 1
  56       19       53 1
  57       19       54 1
  58       19       55 1
  59       20       56 1
  60       20       57 1
  61       20       58 1
  62       21       59 1
  63       21       60 1
  64       21       61 1
  65       23       62 1
  66       23       63 1
  67       25       64 1
  68       26       65 1
  69       30       66 1
  70       33       67 1
  71       34       68 1

@<TRIPOS>MOLECULE

  68   71
SMALL
USER_CHARGES
@<TRIPOS>ATOM
   1 C1           6.6418     3.1717     7.3286 C.3          1    LIG   0.0000
   2 C2           5.1923     3.4011     6.9328 C.3          1    LIG   0.0000
   3 S3           4.9421     2.8662     5.2218 S.3          1    LIG   0.0000
   4 C4           3.1872     3.2169     4.9511 C.3          1    LIG   0.0000
   5 C5           2.9312     4.7024     5.1469 C.3          1    LIG   0.0000
   6 C6           2.8037     2.8192     3.5357 C.2          1    LIG   0.0000
   7 N7           3.3203     3.3017     2.4340 N.2          1    LIG   0.0000
   8 O8           2.7648     2.7409     1.4446 O.2          1    LIG   0.0000
   9 C9           1.8781     1.8781     1.8781 C.2          1    LIG   0.0000
  10 C10          1.0000     1.0000     1.0000 C.3          1    LIG   0.0000
  11 N11         -0.2538     1.7059     0.6992 N.pl3        1    LIG   0.0000
  12 C12         -0.4851     3.0546     1.2363 C.3          1    LIG   0.0000
  13 C13         -1.2255     1.0952    -0.0969 C.2          1    LIG   0.0000
  14 N14         -1.3232     1.1745    -1.4010 N.2          1    LIG   0.0000
  15 N15         -2.3716     0.4761    -1.7989 N.2          1    LIG   0.0000
  16 C16         -2.9600    -0.0695    -0.7621 C.2          1    LIG   0.0000
  17 C17         -4.1974    -0.9517    -0.7833 C.3          1    LIG   0.0000
  18 C18         -4.6749    -1.1205    -2.2164 C.3          1    LIG   0.0000
  19 C19         -5.9124    -2.0029    -2.2375 C.3          1    LIG   0.0000
  20 C20         -5.0133     0.2409    -2.8014 C.3          1    LIG   0.0000
  21 C21         -3.5764    -1.7685    -3.0434 C.3          1    LIG   0.0000
  22 N22         -2.2506     0.3104     0.3348 N.pl3        1    LIG   0.0000
  23 C23         -2.5378    -0.0623     1.7265 C.3          1    LIG   0.0000
  24 C24         -1.3072    -0.7059     2.3427 C.ar         1    LIG   0.0000
  25 C25         -1.1325    -2.0826     2.2521 C.ar         1    LIG   0.0000
  26 C26         -0.0084    -2.6793     2.8135 C.ar         1    LIG   0.0000
  27 C27          0.9304    -1.8841     3.4625 C.ar         1    LIG   0.0000
  28 C28          2.1040    -2.5014     4.0490 C.2          1    LIG   0.0000
  29 N29          3.0962    -1.8406     4.7085 N.2          1    LIG   0.0000
  30 C30          3.9712    -2.7452     5.0854 C.2          1    LIG   0.0000
  31 N31          3.5197    -3.9594     4.6582 N.pl3        1    LIG   0.0000
  32 N32          2.3799    -3.7849     4.0279 N.2          1    LIG   0.0000
  33 C33          0.7632    -0.5062     3.5587 C.ar         1    LIG   0.0000
  34 C34         -0.3637     0.0820     2.9948 C.ar         1    LIG   0.0000
  35 N35          1.8678     1.8977     3.1879 N.2          1    LIG   0.0000
  36 H            2.6383     2.6952     5.6042 H            1    LIG   0.0000
  37 H            3.9794    -4.8360     4.8009 H            1    LIG   0.0000
  38 H            6.7800     3.4672     8.2738 H            1    LIG   0.0000
  39 H            6.8593     2.1989     7.2482 H            1    LIG   0.0000
  40 H            7.2397     3.6979     6.7240 H            1    LIG   0.0000
  41 H            4.5943     2.8748     7.5373 H            1    LIG   0.0000
  42 H            4.9748     4.3739     7.0131 H            1    LIG   0.0000
  43 H            1.9617     4.8961     4.9973 H            1    LIG   0.0000
  44 H            3.1836     4.9641     6.0785 H            1    LIG   0.0000
  45 H            3.4801     5.2241     4.4938 H            1    LIG   0.0000
  46 H            1.4802     0.7954     0.1471 H            1    LIG   0.0000
  47 H            0.7954     0.1471     1.4802 H            1    LIG   0.0000
  48 H            0.3054     3.3371     1.7797 H            1    LIG   0.0000
  49 H           -0.6166     3.6963     0.4807 H            1    LIG   0.0000
  50 H           -1.3014     3.0480     1.8138 H            1    LIG   0.0000
  51 H           -4.9200    -0.5254    -0.2392 H            1    LIG   0.0000
  52 H           -3.9747    -1.8474    -0.3984 H            1    LIG   0.0000
  53 H           -6.2265    -2.1139    -3.1804 H            1    LIG   0.0000
  54 H           -5.6897    -2.8986    -1.8526 H            1    LIG   0.0000
  55 H           -6.6350    -1.5766    -1.6934 H            1    LIG   0.0000
  56 H           -5.3274     0.1299    -3.7443 H            1    LIG   0.0000
  57 H           -5.7359     0.6672    -2.2573 H            1    LIG   0.0000
  58 H           -4.1991     0.8214    -2.7875 H            1    LIG   0.0000
  59 H           -3.8906    -1.8796    -3.9863 H            1    LIG   0.0000
  60 H           -2.7623    -1.1880    -3.0295 H            1    LIG   0.0000
  61 H           -3.3538    -2.6642    -2.6585 H            1    LIG   0.0000
  62 H           -3.2990    -0.7105     1.7477 H            1    LIG   0.0000
  63 H           -2.7821     0.7559     2.2470 H            1    LIG   0.0000
  64 H           -1.8150    -2.6435     1.7835 H            1    LIG   0.0000
  65 H            0.1234    -3.6687     2.7511 H            1    LIG   0.0000
  66 H            4.8154    -2.5745     5.5936 H            1    LIG   0.0000
  67 H            1.4453     0.0545     4.0280 H            1    LIG   0.0000
  68 H           -0.4959     1.0712     3.0578 H            1    LIG   0.0000
@<TRIPOS>BOND
   1        1        2 1
   2        2        3 1
   3        3        4 1
   4        4        5 1
   5        4        6 1
   6        6        7 2
   7        7        8 1
   8        8        9 1
   9        9       10 1
  10       10       11 1
  11       11       12 1
  12       11       13 1
  13       13       14 2
  14       14       15 1
  15       15       16 2
  16       16       17 1
  17       17       18 1
  18       18       19 1
  19       18       20 1
  20       18       21 1
  21       16       22 1
  22       22       13 1
  23       22       23 1
  24       23       24 1
  25       24       25 ar
  26       25       26 ar
  27       26       27 ar
  28       27       28 1
  29       28       29 1
  30       29       30 2
  31       30       31 1
  32       31       32 1
  33       32       28 2
  34       27       33 ar
  35       33       34 ar
  36       34       24 ar
  37        9       35 2
  38       35        6 1
  39        4       36 1
  40       31       37 1
  41        1       38 1
  42        1       39 1
  43        1       40 1
  44        2       41 1
  45        2       42 1
  46        5       43 1
  47        5       44 1
  48        5       45 1
  49       10       46 1
  50       10       47 1
  51       12       48 1
  52       12       49 1
  53       12       50 1
  54       17       51 1
  55       17       52 1
  56       19       53 1
  57       19       54 1
  58       19       55 1
  59       20       56 1
  60       20       57 1
  61       20       58 1
  62       21       59 1
  63       21       60 1
  64       21       61 1
  65       23       62 1
  66       23       63 1
  67       25       64 1
  68       26       65 1
  69       30       66 1
  70       33       67 1
  71       34       68 1

@<TRIPOS>MOLECULE

  68   71
SMALL
USER_CHARGES
@<TRIPOS>ATOM
   1 C1           6.6418     3.1717     7.3286 C.3          1    LIG   0.0000
   2 C2           5.1923     3.4011     6.9328 C.3          1    LIG   0.0000
   3 S3           4.9421     2.8662     5.2218 S.3          1    LIG   0.0000
   4 C4           3.1872     3.2169     4.9511 C.3          1    LIG   0.0000
   5 C5           2.9312     4.7024     5.1469 C.3          1    LIG   0.0000
   6 C6           2.8037     2.8192     3.5357 C.2          1    LIG   0.0000
   7 N7           3.3203     3.3017     2.4340 N.2          1    LIG   0.0000
   8 O8           2.7648     2.7409     1.4446 O.2          1    LIG   0.0000
   9 C9           1.8781     1.8781     1.8781 C.2          1    LIG   0.0000
  10 C10          1.0000     1.0000     1.0000 C.3          1    LIG   0.0000
  11 N11         -0.2538     1.7059     0.6992 N.pl3        1    LIG   0.0000
  12 C12         -0.4851     3.0546     1.2363 C.3          1    LIG   0.0000
  13 C13         -1.2255     1.0952    -0.0969 C.2          1    LIG   0.0000
  14 N14         -1.3232     1.1745    -1.4010 N.2          1    LIG   0.0000
  15 N15         -2.3716     0.4761    -1.7989 N.2          1    LIG   0.0000
  16 C16         -2.9600    -0.0695    -0.7621 C.2          1    LIG   0.0000
  17 C17         -4.1974    -0.9517    -0.7833 C.3          1    LIG   0.0000
  18 C18         -4.6749    -1.1205    -2.2164 C.3          1    LIG   0.0000
  19 C19         -5.9124    -2.0029    -2.2375 C.3          1    LIG   0.0000
  20 C20         -5.0133     0.2409    -2.8014 C.3          1    LIG   0.0000
  21 C21         -3.5764    -1.7685    -3.0434 C.3          1    LIG   0.0000
  22 N22         -2.2506     0.3104     0.3348 N.pl3        1    LIG   0.0000
  23 C23         -2.5378    -0.0623     1.7265 C.3          1    LIG   0.0000
  24 C24         -3.9664     0.3244     2.0698 C.ar         1    LIG   0.0000
  25 C25         -4.2307     1.5848     2.5949 C.ar         1    LIG   0.0000
  26 C26         -5.5361     1.9464     2.9115 C.ar         1    LIG   0.0000
  27 C27         -6.5646     1.0347     2.6975 C.ar         1    LIG   0.0000
  28 C28         -7.9269     1.4071     3.0256 C.2          1    LIG   0.0000
  29 N29         -8.3137     2.6064     3.5434 N.2          1    LIG   0.0000
  30 C30         -9.6174     2.5525     3.6969 C.2          1    LIG   0.0000
  31 N31        -10.0321     1.3231     3.2760 N.pl3        1    LIG   0.0000
  32 N32         -8.9832     0.6423     2.8722 N.2          1    LIG   0.0000
  33 C33         -6.3091    -0.2287     2.1736 C.ar         1    LIG   0.0000
  34 C34         -5.0012    -0.5819     1.8600 C.ar         1    LIG   0.0000
  35 N35          1.8678     1.8977     3.1879 N.2          1    LIG   0.0000
  36 H            2.6383     2.6952     5.6042 H            1    LIG   0.0000
  37 H          -10.9766     0.9947     3.2749 H            1    LIG   0.0000
  38 H            6.7800     3.4672     8.2738 H            1    LIG   0.0000
  39 H            6.8593     2.1989     7.2482 H            1    LIG   0.0000
  40 H            7.2397     3.6979     6.7240 H            1    LIG   0.0000
  41 H            4.5943     2.8748     7.5373 H            1    LIG   0.0000
  42 H            4.9748     4.3739     7.0131 H            1    LIG   0.0000
  43 H            1.9617     4.8961     4.9973 H            1    LIG   0.0000
  44 H            3.1836     4.9641     6.0785 H            1    LIG   0.0000
  45 H            3.4801     5.2241     4.4938 H            1    LIG   0.0000
  46 H            1.4802     0.7954     0.1471 H            1    LIG   0.0000
  47 H            0.7954     0.1471     1.4802 H            1    LIG   0.0000
  48 H            0.3054     3.3371     1.7797 H            1    LIG   0.0000
  49 H           -0.6166     3.6963     0.4807 H            1    LIG   0.0000
  50 H           -1.3014     3.0480     1.8138 H            1    LIG   0.0000
  51 H           -4.9200    -0.5254    -0.2392 H            1    LIG   0.0000
  52 H           -3.9747    -1.8474    -0.3984 H            1    LIG   0.0000
  53 H           -6.2265    -2.1139    -3.1804 H            1    LIG   0.0000
  54 H           -5.6897    -2.8986    -1.8526 H            1    LIG   0.0000
  55 H           -6.6350    -1.5766    -1.6934 H            1    LIG   0.0000
  56 H           -5.3274     0.1299    -3.7443 H            1    LIG   0.0000
  57 H           -5.7359     0.6672    -2.2573 H            1    LIG   0.0000
  58 H           -4.1991     0.8214    -2.7875 H            1    LIG   0.0000
  59 H           -3.8906    -1.8796    -3.9863 H            1    LIG   0.0000
  60 H           -2.7623    -1.1880    -3.0295 H            1    LIG   0.0000
  61 H           -3.3538    -2.6642    -2.6585 H            1    LIG   0.0000
  62 H           -1.9070     0.4168     2.3368 H            1    LIG   0.0000
  63 H           -2.4239    -1.0495     1.8375 H            1    LIG   0.0000
  64 H           -3.4825     2.2310     2.7448 H            1    LIG   0.0000
  65 H           -5.7328     2.8514     3.2886 H            1    LIG   0.0000
  66 H          -10.2002     3.2810     4.0571 H            1    LIG   0.0000
  67 H           -7.0573    -0.8752     2.0244 H            1    LIG   0.0000
  68 H           -4.8043    -1.4872     1.4836 H            1    LIG   0.0000
@<TRIPOS>BOND
   1        1        2 1
   2        2        3 1
   3        3        4 1
   4        4        5 1
   5        4        6 1
   6        6        7 2
   7        7        8 1
   8        8        9 1
   9        9       10 1
  10       10       11 1
  11       11       12 1
  12       11       13 1
  13       13       14 2
  14       14       15 1
  15       15       16 2
  16       16       17 1
  17       17       18 1
  18       18       19 1
  19       18       20 1
  20       18       21 1
  21       16       22 1
  22       22       13 1
  23       22       23 1
  24       23       24 1
  25       24       25 ar
  26       25       26 ar
  27       26       27 ar
  28       27       28 1
  29       28       29 1
  30       29       30 2
  31       30       31 1
  32       31       32 1
  33       32       28 2
  34       27       33 ar
  35       33       34 ar
  36       34       24 ar
  37        9       35 2
  38       35        6 1
  39        4       36 1
  40       31       37 1
  41        1       38 1
  42        1       39 1
  43        1       40 1
  44        2       41 1
  45        2       42 1
  46        5       43 1
  47        5       44 1
  48        5       45 1
  49       10       46 1
  50       10       47 1
  51       12       48 1
  52       12       49 1
  53       12       50 1
  54       17       51 1
  55       17       52 1
  56       19       53 1
  57       19       54 1
  58       19       55 1
  59       20       56 1
  60       20       57 1
  61       20       58 1
  62       21       59 1
  63       21       60 1
  64       21       61 1
  65       23       62 1
  66       23       63 1
  67       25       64 1
  68       26       65 1
  69       30       66 1
  70       33       67 1
  71       34       68 1

@<TRIPOS>MOLECULE

  68   71
SMALL
USER_CHARGES
@<TRIPOS>ATOM
   1 C1           6.6418     3.1717     7.3286 C.3          1    LIG   0.0000
   2 C2           5.1923     3.4011     6.9328 C.3          1    LIG   0.0000
   3 S3           4.9421     2.8662     5.2218 S.3          1    LIG   0.0000
   4 C4           3.1872     3.2169     4.9511 C.3          1    LIG   0.0000
   5 C5           2.9312     4.7024     5.1469 C.3          1    LIG   0.0000
   6 C6           2.8037     2.8192     3.5357 C.2          1    LIG   0.0000
   7 N7           3.3203     3.3017     2.4340 N.2          1    LIG   0.0000
   8 O8           2.7648     2.7409     1.4446 O.2          1    LIG   0.0000
   9 C9           1.8781     1.8781     1.8781 C.2          1    LIG   0.0000
  10 C10          1.0000     1.0000     1.0000 C.3          1    LIG   0.0000
  11 N11         -0.2538     1.7059     0.6992 N.pl3        1    LIG   0.0000
  12 C12         -0.4851     3.0546     1.2363 C.3          1    LIG   0.0000
  13 C13         -1.2255     1.0952    -0.0969 C.2          1    LIG   0.0000
  14 N14         -2.2083     0.3367     0.3218 N.2          1    LIG   0.0000
  15 N15         -2.9149    -0.0681    -0.7183 N.2          1    LIG   0.0000
  16 C16         -2.4057     0.4277    -1.8200 C.2          1    LIG   0.0000
  17 C17         -2.9194     0.2093    -3.2336 C.3          1    LIG   0.0000
  18 C18         -4.3682    -0.2475    -3.1813 C.3          1    LIG   0.0000
  19 C19         -4.8819    -0.4659    -4.5951 C.3          1    LIG   0.0000
  20 C20         -4.4613    -1.5490    -2.4017 C.3          1    LIG   0.0000
  21 C21         -5.2102     0.8156    -2.4949 C.3          1    LIG   0.0000
  22 N22         -1.3276     1.1714    -1.4522 N.pl3        1    LIG   0.0000
  23 C23         -0.4414     1.9206    -2.3532 C.3          1    LIG   0.0000
  24 C24         -1.2687     2.8697    -3.2035 C.ar         1    LIG   0.0000
  25 C25         -1.0926     2.8886    -4.5829 C.ar         1    LIG   0.0000
  26 C26         -1.8465     3.7545    -5.3683 C.ar         1    LIG   0.0000
  27 C27         -2.7711     4.5953    -4.7574 C.ar         1    LIG   0.0000
  28 C28         -3.5594     5.4994    -5.5718 C.2          1    LIG   0.0000
  29 N29         -4.9193     5.5040    -5.6541 N.2          1    LIG   0.0000
  30 C30         -5.2473     6.4644    -6.4885 C.2          1    LIG   0.0000
  31 N31         -4.0926     7.0488    -6.9195 N.pl3        1    LIG   0.0000
  32 N32         -3.0767     6.4424    -6.3474 N.2          1    LIG   0.0000
  33 C33         -2.9530     4.5837    -3.3780 C.ar         1    LIG   0.0000
  34 C34         -2.1951     3.7149    -2.6004 C.ar         1    LIG   0.0000
  35 N35          1.8678     1.8977     3.1879 N.2          1    LIG   0.0000
  36 H            2.6383     2.6952     5.6042 H            1    LIG   0.0000
  37 H           -4.0296     7.8114    -7.5634 H            1    LIG   0.0000
  38 H            6.7800     3.4672     8.2738 H            1    LIG   0.0000
  39 H            6.8593     2.1989     7.2482 H            1    LIG   0.0000
  40 H            7.2397     3.6979     6.7240 H            1    LIG   0.0000
  41 H            4.5943     2.8748     7.5373 H            1    LIG   0.0000
  42 H            4.9748     4.3739     7.0131 H            1    LIG   0.0000
  43 H            1.9617     4.8961     4.9973 H            1    LIG   0.0000
  44 H            3.1836     4.9641     6.0785 H            1    LIG   0.0000
  45 H            3.4801     5.2241     4.4938 H            1    LIG   0.0000
  46 H            1.4802     0.7954     0.1471 H            1    LIG   0.0000
  47 H            0.7954     0.1471     1.4802 H            1    LIG   0.0000
  48 H            0.3054     3.3371     1.7797 H            1    LIG   0.0000
  49 H           -0.6166     3.6963     0.4807 H            1    LIG   0.0000
  50 H           -1.3014     3.0480     1.8138 H            1    LIG   0.0000
  51 H           -2.3654    -0.4901    -3.6852 H            1    LIG   0.0000
  52 H           -2.8582     1.0656    -3.7465 H            1    LIG   0.0000
  53 H           -5.8351    -0.7665    -4.5607 H            1    LIG   0.0000
  54 H           -4.8207     0.3903    -5.1080 H            1    LIG   0.0000
  55 H           -4.3280    -1.1654    -5.0467 H            1    LIG   0.0000
  56 H           -5.4144    -1.8495    -2.3673 H            1    LIG   0.0000
  57 H           -3.9073    -2.2484    -2.8533 H            1    LIG   0.0000
  58 H           -4.1233    -1.4053    -1.4716 H            1    LIG   0.0000
  59 H           -6.1633     0.5151    -2.4605 H            1    LIG   0.0000
  60 H           -4.8722     0.9593    -1.5648 H            1    LIG   0.0000
  61 H           -5.1490     1.6719    -3.0078 H            1    LIG   0.0000
  62 H            0.0479     1.2817    -2.9468 H            1    LIG   0.0000
  63 H            0.2171     2.4448    -1.8132 H            1    LIG   0.0000
  64 H           -0.4242     2.2798    -5.0101 H            1    LIG   0.0000
  65 H           -1.7251     3.7724    -6.3608 H            1    LIG   0.0000
  66 H           -6.1754     6.7207    -6.7586 H            1    LIG   0.0000
  67 H           -3.6209     5.1931    -2.9508 H            1    LIG   0.0000
  68 H           -2.3158     3.6976    -1.6079 H            1    LIG   0.0000
@<TRIPOS>BOND
   1        1        2 1
   2        2        3 1
   3        3        4 1
   4        4        5 1
   5        4        6 1
   6        6        7 2
   7        7        8 1
   8        8        9 1
   9        9       10 1
  10       10       11 1
  11       11       12 1
  12       11       13 1
  13       13       14 2
  14       14       15 1
  15       15       16 2
  16       16       17 1
  17       17       18 1
  18       18       19 1
  19       18       20 1
  20       18       21 1
  21       16       22 1
  22       22       13 1
  23       22       23 1
  24       23       24 1
  25       24       25 ar
  26       25       26 ar
  27       26       27 ar
  28       27       28 1
  29       28       29 1
  30       29       30 2
  31       30       31 1
  32       31       32 1
  33       32       28 2
  34       27       33 ar
  35       33       34 ar
  36       34       24 ar
  37        9       35 2
  38       35        6 1
  39        4       36 1
  40       31       37 1
  41        1       38 1
  42        1       39 1
  43        1       40 1
  44        2       41 1
  45        2       42 1
  46        5       43 1
  47        5       44 1
  48        5       45 1
  49       10       46 1
  50       10       47 1
  51       12       48 1
  52       12       49 1
  53       12       50 1
  54       17       51 1
  55       17       52 1
  56       19       53 1
  57       19       54 1
  58       19       55 1
  59       20       56 1
  60       20       57 1
  61       20       58 1
  62       21       59 1
  63       21       60 1
  64       21       61 1
  65       23       62 1
  66       23       63 1
  67       25       64 1
  68       26       65 1
  69       30       66 1
  70       33       67 1
  71       34       68 1

@<TRIPOS>MOLECULE

  68   71
SMALL
USER_CHARGES
@<TRIPOS>ATOM
   1 C1           6.6418     3.1717     7.3286 C.3          1    LIG   0.0000
   2 C2           5.1923     3.4011     6.9328 C.3          1    LIG   0.0000
   3 S3           4.9421     2.8662     5.2218 S.3          1    LIG   0.0000
   4 C4           3.1872     3.2169     4.9511 C.3          1    LIG   0.0000
   5 C5           2.9312     4.7024     5.1469 C.3          1    LIG   0.0000
   6 C6           2.8037     2.8192     3.5357 C.2          1    LIG   0.0000
   7 N7           3.3203     3.3017     2.4340 N.2          1    LIG   0.0000
   8 O8           2.7648     2.7409     1.4446 O.2          1    LIG   0.0000
   9 C9           1.8781     1.8781     1.8781 C.2          1    LIG   0.0000
  10 C10          1.0000     1.0000     1.0000 C.3          1    LIG   0.0000
  11 N11         -0.2538     1.7059     0.6992 N.pl3        1    LIG   0.0000
  12 C12         -0.2711     3.1739     0.6245 C.3          1    LIG   0.0000
  13 C13         -1.4287     0.9818     0.4844 C.2          1    LIG   0.0000
  14 N14         -1.6620    -0.2504     0.8637 N.2          1    LIG   0.0000
  15 N15         -2.8752    -0.5997     0.4748 N.2          1    LIG   0.0000
  16 C16         -3.4448     0.4008    -0.1524 C.2          1    LIG   0.0000
  17 C17         -4.8397     0.4154    -0.7556 C.3          1    LIG   0.0000
  18 C18         -5.5056    -0.9314    -0.5250 C.3          1    LIG   0.0000
  19 C19         -6.9007    -0.9167    -1.1282 C.3          1    LIG   0.0000
  20 C20         -4.6801    -2.0242    -1.1841 C.3          1    LIG   0.0000
  21 C21         -5.6020    -1.1999     0.9680 C.3          1    LIG   0.0000
  22 N22         -2.5440     1.4202    -0.1615 N.pl3        1    LIG   0.0000
  23 C23         -2.7425     2.7490    -0.7558 C.3          1    LIG   0.0000
  24 C24         -1.8609     2.8909    -1.9850 C.ar         1    LIG   0.0000
  25 C25         -1.0508     4.0126    -2.1248 C.ar         1    LIG   0.0000
  26 C26         -0.2406     4.1497    -3.2472 C.ar         1    LIG   0.0000
  27 C27         -0.2538     3.1558    -4.2202 C.ar         1    LIG   0.0000
  28 C28          0.5892     3.2939    -5.3918 C.2          1    LIG   0.0000
  29 N29          0.6717     2.3971    -6.4140 N.2          1    LIG   0.0000
  30 C30          1.5364     2.8812    -7.2766 C.2          1    LIG   0.0000
  31 N31          1.9859     4.0721    -6.7864 N.pl3        1    LIG   0.0000
  32 N32          1.3946     4.3018    -5.6355 N.2          1    LIG   0.0000
  33 C33         -1.0619     2.0308    -4.0890 C.ar         1    LIG   0.0000
  34 C34         -1.8688     1.9018    -2.9637 C.ar         1    LIG   0.0000
  35 N35          1.8678     1.8977     3.1879 N.2          1    LIG   0.0000
  36 H            2.6383     2.6952     5.6042 H            1    LIG   0.0000
  37 H            2.6539     4.6704    -7.2289 H            1    LIG   0.0000
  38 H            6.7800     3.4672     8.2738 H            1    LIG   0.0000
  39 H            6.8593     2.1989     7.2482 H            1    LIG   0.0000
  40 H            7.2397     3.6979     6.7240 H            1    LIG   0.0000
  41 H            4.5943     2.8748     7.5373 H            1    LIG   0.0000
  42 H            4.9748     4.3739     7.0131 H            1    LIG   0.0000
  43 H            1.9617     4.8961     4.9973 H            1    LIG   0.0000
  44 H            3.1836     4.9641     6.0785 H            1    LIG   0.0000
  45 H            3.4801     5.2241     4.4938 H            1    LIG   0.0000
  46 H            1.4802     0.7954     0.1471 H            1    LIG   0.0000
  47 H            0.7954     0.1471     1.4802 H            1    LIG   0.0000
  48 H            0.6471     3.5276     0.8027 H            1    LIG   0.0000
  49 H           -0.5665     3.4578    -0.2877 H            1    LIG   0.0000
  50 H           -0.9058     3.5350     1.3078 H            1    LIG   0.0000
  51 H           -4.7764     0.5921    -1.7378 H            1    LIG   0.0000
  52 H           -5.3829     1.1344    -0.3219 H            1    LIG   0.0000
  53 H           -7.3388    -1.8027    -0.9764 H            1    LIG   0.0000
  54 H           -7.4439    -0.1977    -0.6945 H            1    LIG   0.0000
  55 H           -6.8374    -0.7400    -2.1104 H            1    LIG   0.0000
  56 H           -5.1182    -2.9103    -1.0324 H            1    LIG   0.0000
  57 H           -4.6167    -1.8476    -2.1663 H            1    LIG   0.0000
  58 H           -3.7623    -2.0339    -0.7873 H            1    LIG   0.0000
  59 H           -6.0401    -2.0859     1.1198 H            1    LIG   0.0000
  60 H           -4.6841    -1.2096     1.3649 H            1    LIG   0.0000
  61 H           -6.1451    -0.4809     1.4017 H            1    LIG   0.0000
  62 H           -2.4991     3.4525    -0.0880 H            1    LIG   0.0000
  63 H           -3.7012     2.8566    -1.0190 H            1    LIG   0.0000
  64 H           -1.0508     4.7206    -1.4186 H            1    LIG   0.0000
  65 H            0.3447     4.9536    -3.3533 H            1    LIG   0.0000
  66 H            1.8147     2.4539    -8.1369 H            1    LIG   0.0000
  67 H           -1.0624     1.3231    -4.7955 H            1    LIG   0.0000
  68 H           -2.4547     1.0984    -2.8580 H            1    LIG   0.0000
@<TRIPOS>BOND
   1        1        2 1
   2        2        3 1
   3        3        4 1
   4        4        5 1
   5        4        6 1
   6        6        7 2
   7        7        8 1
   8        8        9 1
   9        9       10 1
  10       10       11 1
  11       11       12 1
  12       11       13 1
  13       13       14 2
  14       14       15 1
  15       15       16 2
  16       16       17 1
  17       17       18 1
  18       18       19 1
  19       18       20 1
  20       18       21 1
  21       16       22 1
  22       22       13 1
  23       22       23 1
  24       23       24 1
  25       24       25 ar
  26       25       26 ar
  27       26       27 ar
  28       27       28 1
  29       28       29 1
  30       29       30 2
  31       30       31 1
  32       31       32 1
  33       32       28 2
  34       27       33 ar
  35       33       34 ar
  36       34       24 ar
  37        9       35 2
  38       35        6 1
  39        4       36 1
  40       31       37 1
  41        1       38 1
  42        1       39 1
  43        1       40 1
  44        2       41 1
  45        2       42 1
  46        5       43 1
  47        5       44 1
  48        5       45 1
  49       10       46 1
  50       10       47 1
  51       12       48 1
  52       12       49 1
  53       12       50 1
  54       17       51 1
  55       17       52 1
  56       19       53 1
  57       19       54 1
  58       19       55 1
  59       20       56 1
  60       20       57 1
  61       20       58 1
  62       21       59 1
  63       21       60 1
  64       21       61 1
  65       23       62 1
  66       23       63 1
  67       25       64 1
  68       26       65 1
  69       30       66 1
  70       33       67 1
  71       34       68 1

