@<TRIPOS>MOLECULE
*****
 68 71 0 0 0
SMALL
USER_CHARGES

@<TRIPOS>ATOM
      1 C1          6.6418    3.1717    7.3286 C.3     1  LIG1        0.0000
      2 C2          5.1923    3.4011    6.9328 C.3     1  LIG1        0.0000
      3 S3          4.9421    2.8662    5.2218 S.3     1  LIG1        0.0000
      4 C4          3.1872    3.2169    4.9511 C.3     1  LIG1        0.0000
      5 C5          2.9312    4.7024    5.1469 C.3     1  LIG1        0.0000
      6 C6          2.8037    2.8192    3.5357 C.2     1  LIG1        0.0000
      7 N7          3.3203    3.3017    2.4340 N.2     1  LIG1        0.0000
      8 O8          2.7648    2.7409    1.4446 O.2     1  LIG1        0.0000
      9 C9          1.8781    1.8781    1.8781 C.2     1  LIG1        0.0000
     10 C10         1.0000    1.0000    1.0000 C.3     1  LIG1        0.0000
     11 N11        -0.2538    1.7059    0.6992 N.pl3   1  LIG1        0.0000
     12 C12        -1.4752    1.3882    1.4530 C.3     1  LIG1        0.0000
     13 C13        -0.2846    2.6785   -0.3028 C.2     1  LIG1        0.0000
     14 N14        -1.1815    3.6236   -0.4404 N.2     1  LIG1        0.0000
     15 N15        -0.8885    4.3451   -1.5075 N.2     1  LIG1        0.0000
     16 C16         0.2028    3.8834   -2.0686 C.2     1  LIG1        0.0000
     17 C17         0.8810    4.4286   -3.3147 C.3     1  LIG1        0.0000
     18 C18         0.0963    5.6204   -3.8383 C.3     1  LIG1        0.0000
     19 C19         0.7746    6.1657   -5.0845 C.3     1  LIG1        0.0000
     20 C20        -1.3188    5.1841   -4.1814 C.3     1  LIG1        0.0000
     21 C21         0.0482    6.7033   -2.7727 C.3     1  LIG1        0.0000
     22 N22         0.6069    2.8207   -1.3216 N.pl3   1  LIG1        0.0000
     23 C23         1.7898    1.9852   -1.5688 C.3     1  LIG1        0.0000
     24 C24         1.3484    0.6042   -2.0230 C.ar    1  LIG1        0.0000
     25 C25         0.3885   -0.0866   -1.2912 C.ar    1  LIG1        0.0000
     26 C26        -0.0211   -1.3513   -1.7007 C.ar    1  LIG1        0.0000
     27 C27         0.5406   -1.9103   -2.8439 C.ar    1  LIG1        0.0000
     28 C28         0.1167   -3.2281   -3.2751 C.2     1  LIG1        0.0000
     29 N29         0.5838   -3.8870   -4.3722 N.2     1  LIG1        0.0000
     30 C30        -0.0416   -5.0416   -4.4182 C.2     1  LIG1        0.0000
     31 N31        -0.8922   -5.0930   -3.3531 N.pl3   1  LIG1        0.0000
     32 N32        -0.7785   -3.9753   -2.6713 N.2     1  LIG1        0.0000
     33 C33         1.5022   -1.2268   -3.5815 C.ar    1  LIG1        0.0000
     34 C34         1.9059    0.0370   -3.1649 C.ar    1  LIG1        0.0000
     35 N35         1.8678    1.8977    3.1879 N.2     1  LIG1        0.0000
     36 H           2.6383    2.6952    5.6042 H       1  LIG1        0.0000
     37 H          -1.5007   -5.8541   -3.1285 H       1  LIG1        0.0000
     38 H           6.7800    3.4672    8.2738 H       1  LIG1        0.0000
     39 H           6.8593    2.1989    7.2482 H       1  LIG1        0.0000
     40 H           7.2397    3.6979    6.7240 H       1  LIG1        0.0000
     41 H           4.5943    2.8748    7.5373 H       1  LIG1        0.0000
     42 H           4.9748    4.3739    7.0131 H       1  LIG1        0.0000
     43 H           1.9617    4.8961    4.9973 H       1  LIG1        0.0000
     44 H           3.1836    4.9641    6.0785 H       1  LIG1        0.0000
     45 H           3.4801    5.2241    4.4938 H       1  LIG1        0.0000
     46 H           1.4802    0.7954    0.1471 H       1  LIG1        0.0000
     47 H           0.7954    0.1471    1.4802 H       1  LIG1        0.0000
     48 H          -1.2759    0.6758    2.1257 H       1  LIG1        0.0000
     49 H          -1.7999    2.2090    1.9229 H       1  LIG1        0.0000
     50 H          -2.1808    1.0638    0.8230 H       1  LIG1        0.0000
     51 H           0.9126    3.7163   -4.0157 H       1  LIG1        0.0000
     52 H           1.8119    4.7157   -3.0889 H       1  LIG1        0.0000
     53 H           0.2583    6.9498   -5.4290 H       1  LIG1        0.0000
     54 H           1.7055    6.4527   -4.8588 H       1  LIG1        0.0000
     55 H           0.8062    5.4533   -5.7856 H       1  LIG1        0.0000
     56 H          -1.8350    5.9682   -4.5260 H       1  LIG1        0.0000
     57 H          -1.2872    4.4717   -4.8825 H       1  LIG1        0.0000
     58 H          -1.7650    4.8254   -3.3616 H       1  LIG1        0.0000
     59 H          -0.4680    7.4873   -3.1172 H       1  LIG1        0.0000
     60 H          -0.3980    6.3445   -1.9528 H       1  LIG1        0.0000
     61 H           0.9792    6.9903   -2.5470 H       1  LIG1        0.0000
     62 H           2.3228    1.9045   -0.7266 H       1  LIG1        0.0000
     63 H           2.3524    2.4061   -2.2804 H       1  LIG1        0.0000
     64 H          -0.0072    0.3259   -0.4707 H       1  LIG1        0.0000
     65 H          -0.7114   -1.8528   -1.1793 H       1  LIG1        0.0000
     66 H           0.0834   -5.7538   -5.1090 H       1  LIG1        0.0000
     67 H           1.8984   -1.6396   -4.4016 H       1  LIG1        0.0000
     68 H           2.5968    0.5382   -3.6859 H       1  LIG1        0.0000
@<TRIPOS>BOND
     1     1     2    1
     2     2     3    1
     3     3     4    1
     4     4     5    1
     5     4     6    1
     6     6     7    2
     7     7     8    1
     8     8     9    1
     9     9    10    1
    10    10    11    1
    11    11    12    1
    12    11    13    1
    13    13    14    2
    14    14    15    1
    15    15    16    2
    16    16    17    1
    17    17    18    1
    18    18    19    1
    19    18    20    1
    20    18    21    1
    21    16    22    1
    22    22    13    1
    23    22    23    1
    24    23    24    1
    25    24    25   ar
    26    25    26   ar
    27    26    27   ar
    28    27    28    1
    29    28    29    1
    30    29    30    2
    31    30    31    1
    32    31    32    1
    33    32    28    2
    34    27    33   ar
    35    33    34   ar
    36    34    24   ar
    37     9    35    2
    38    35     6    1
    39     4    36    1
    40    31    37    1
    41     1    38    1
    42     1    39    1
    43     1    40    1
    44     2    41    1
    45     2    42    1
    46     5    43    1
    47     5    44    1
    48     5    45    1
    49    10    46    1
    50    10    47    1
    51    12    48    1
    52    12    49    1
    53    12    50    1
    54    17    51    1
    55    17    52    1
    56    19    53    1
    57    19    54    1
    58    19    55    1
    59    20    56    1
    60    20    57    1
    61    20    58    1
    62    21    59    1
    63    21    60    1
    64    21    61    1
    65    23    62    1
    66    23    63    1
    67    25    64    1
    68    26    65    1
    69    30    66    1
    70    33    67    1
    71    34    68    1
