@<TRIPOS>MOLECULE
*****
 68 71 0 0 0
SMALL
USER_CHARGES

@<TRIPOS>ATOM
      1 C1          6.6418    3.1717    7.3286 C.3     1  LIG1        0.0000
      2 C2          5.1923    3.4011    6.9328 C.3     1  LIG1        0.0000
      3 S3          4.9421    2.8662    5.2218 S.3     1  LIG1        0.0000
      4 C4          3.1872    3.2169    4.9511 C.3     1  LIG1        0.0000
      5 C5          2.9312    4.7024    5.1469 C.3     1  LIG1        0.0000
      6 C6          2.8037    2.8192    3.5357 C.2     1  LIG1        0.0000
      7 N7          3.3203    3.3017    2.4340 N.2     1  LIG1        0.0000
      8 O8          2.7648    2.7409    1.4446 O.2     1  LIG1        0.0000
      9 C9          1.8781    1.8781    1.8781 C.2     1  LIG1        0.0000
     10 C10         1.0000    1.0000    1.0000 C.3     1  LIG1        0.0000
     11 N11        -0.2538    1.7059    0.6992 N.pl3   1  LIG1        0.0000
     12 C12        -1.4752    1.3882    1.4530 C.3     1  LIG1        0.0000
     13 C13        -0.2846    2.6785   -0.3028 C.2     1  LIG1        0.0000
     14 N14        -0.0556    3.9594   -0.1492 N.2     1  LIG1        0.0000
     15 N15        -0.1856    4.5644   -1.3163 N.2     1  LIG1        0.0000
     16 C16        -0.4916    3.6853   -2.2396 C.2     1  LIG1        0.0000
     17 C17        -0.7257    3.9654   -3.7149 C.3     1  LIG1        0.0000
     18 C18        -0.5511    5.4515   -3.9824 C.3     1  LIG1        0.0000
     19 C19        -0.7852    5.7316   -5.4579 C.3     1  LIG1        0.0000
     20 C20        -1.5533    6.2369   -3.1523 C.3     1  LIG1        0.0000
     21 C21         0.8599    5.8720   -3.6045 C.3     1  LIG1        0.0000
     22 N22        -0.5623    2.4762   -1.6200 N.pl3   1  LIG1        0.0000
     23 C23        -0.8765    1.1907   -2.2580 C.3     1  LIG1        0.0000
     24 C24         0.4078    0.5368   -2.7391 C.ar    1  LIG1        0.0000
     25 C25         0.8737    0.7981   -4.0231 C.ar    1  LIG1        0.0000
     26 C26         2.0489    0.2036   -4.4708 C.ar    1  LIG1        0.0000
     27 C27         2.7446   -0.6505   -3.6214 C.ar    1  LIG1        0.0000
     28 C28         3.9702   -1.2724   -4.0834 C.2     1  LIG1        0.0000
     29 N29         4.7454   -2.1239   -3.3553 N.2     1  LIG1        0.0000
     30 C30         5.7572   -2.4665   -4.1203 C.2     1  LIG1        0.0000
     31 N31         5.6061   -1.8268   -5.3155 N.pl3   1  LIG1        0.0000
     32 N32         4.5097   -1.1037   -5.2685 N.2     1  LIG1        0.0000
     33 C33         2.2852   -0.9184   -2.3357 C.ar    1  LIG1        0.0000
     34 C34         1.1095   -0.3197   -1.8963 C.ar    1  LIG1        0.0000
     35 N35         1.8678    1.8977    3.1879 N.2     1  LIG1        0.0000
     36 H           2.6383    2.6952    5.6042 H       1  LIG1        0.0000
     37 H           6.2261   -1.8963   -6.0970 H       1  LIG1        0.0000
     38 H           6.7800    3.4672    8.2738 H       1  LIG1        0.0000
     39 H           6.8593    2.1989    7.2482 H       1  LIG1        0.0000
     40 H           7.2397    3.6979    6.7240 H       1  LIG1        0.0000
     41 H           4.5943    2.8748    7.5373 H       1  LIG1        0.0000
     42 H           4.9748    4.3739    7.0131 H       1  LIG1        0.0000
     43 H           1.9617    4.8961    4.9973 H       1  LIG1        0.0000
     44 H           3.1836    4.9641    6.0785 H       1  LIG1        0.0000
     45 H           3.4801    5.2241    4.4938 H       1  LIG1        0.0000
     46 H           1.4802    0.7954    0.1471 H       1  LIG1        0.0000
     47 H           0.7954    0.1471    1.4802 H       1  LIG1        0.0000
     48 H          -1.2759    0.6758    2.1257 H       1  LIG1        0.0000
     49 H          -1.7999    2.2090    1.9229 H       1  LIG1        0.0000
     50 H          -2.1808    1.0638    0.8230 H       1  LIG1        0.0000
     51 H          -1.6539    3.6888   -3.9635 H       1  LIG1        0.0000
     52 H          -0.0663    3.4487   -4.2610 H       1  LIG1        0.0000
     53 H          -0.6703    6.7093   -5.6339 H       1  LIG1        0.0000
     54 H          -0.1259    5.2149   -6.0040 H       1  LIG1        0.0000
     55 H          -1.7135    5.4550   -5.7065 H       1  LIG1        0.0000
     56 H          -1.4384    7.2146   -3.3283 H       1  LIG1        0.0000
     57 H          -2.4816    5.9603   -3.4009 H       1  LIG1        0.0000
     58 H          -1.3993    6.0526   -2.1816 H       1  LIG1        0.0000
     59 H           0.9747    6.8496   -3.7805 H       1  LIG1        0.0000
     60 H           1.0139    5.6877   -2.6338 H       1  LIG1        0.0000
     61 H           1.5192    5.3552   -4.1507 H       1  LIG1        0.0000
     62 H          -1.4841    1.3450   -3.0371 H       1  LIG1        0.0000
     63 H          -1.3280    0.5919   -1.5966 H       1  LIG1        0.0000
     64 H           0.3640    1.4134   -4.6245 H       1  LIG1        0.0000
     65 H           2.3896    0.3880   -5.3927 H       1  LIG1        0.0000
     66 H           6.5030   -3.0844   -3.8713 H       1  LIG1        0.0000
     67 H           2.7946   -1.5342   -1.7347 H       1  LIG1        0.0000
     68 H           0.7683   -0.5047   -0.9747 H       1  LIG1        0.0000
@<TRIPOS>BOND
     1     1     2    1
     2     2     3    1
     3     3     4    1
     4     4     5    1
     5     4     6    1
     6     6     7    2
     7     7     8    1
     8     8     9    1
     9     9    10    1
    10    10    11    1
    11    11    12    1
    12    11    13    1
    13    13    14    2
    14    14    15    1
    15    15    16    2
    16    16    17    1
    17    17    18    1
    18    18    19    1
    19    18    20    1
    20    18    21    1
    21    16    22    1
    22    22    13    1
    23    22    23    1
    24    23    24    1
    25    24    25   ar
    26    25    26   ar
    27    26    27   ar
    28    27    28    1
    29    28    29    1
    30    29    30    2
    31    30    31    1
    32    31    32    1
    33    32    28    2
    34    27    33   ar
    35    33    34   ar
    36    34    24   ar
    37     9    35    2
    38    35     6    1
    39     4    36    1
    40    31    37    1
    41     1    38    1
    42     1    39    1
    43     1    40    1
    44     2    41    1
    45     2    42    1
    46     5    43    1
    47     5    44    1
    48     5    45    1
    49    10    46    1
    50    10    47    1
    51    12    48    1
    52    12    49    1
    53    12    50    1
    54    17    51    1
    55    17    52    1
    56    19    53    1
    57    19    54    1
    58    19    55    1
    59    20    56    1
    60    20    57    1
    61    20    58    1
    62    21    59    1
    63    21    60    1
    64    21    61    1
    65    23    62    1
    66    23    63    1
    67    25    64    1
    68    26    65    1
    69    30    66    1
    70    33    67    1
    71    34    68    1
