@<TRIPOS>MOLECULE
*****
 68 71 0 0 0
SMALL
USER_CHARGES

@<TRIPOS>ATOM
      1 C1          6.6418    3.1717    7.3286 C.3     1  LIG1        0.0000
      2 C2          5.1923    3.4011    6.9328 C.3     1  LIG1        0.0000
      3 S3          4.9421    2.8662    5.2218 S.3     1  LIG1        0.0000
      4 C4          3.1872    3.2169    4.9511 C.3     1  LIG1        0.0000
      5 C5          2.9312    4.7024    5.1469 C.3     1  LIG1        0.0000
      6 C6          2.8037    2.8192    3.5357 C.2     1  LIG1        0.0000
      7 N7          3.3203    3.3017    2.4340 N.2     1  LIG1        0.0000
      8 O8          2.7648    2.7409    1.4446 O.2     1  LIG1        0.0000
      9 C9          1.8781    1.8781    1.8781 C.2     1  LIG1        0.0000
     10 C10         1.0000    1.0000    1.0000 C.3     1  LIG1        0.0000
     11 N11        -0.2538    1.7059    0.6992 N.pl3   1  LIG1        0.0000
     12 C12        -0.2711    3.1739    0.6245 C.3     1  LIG1        0.0000
     13 C13        -1.4287    0.9818    0.4844 C.2     1  LIG1        0.0000
     14 N14        -1.6620   -0.2504    0.8637 N.2     1  LIG1        0.0000
     15 N15        -2.8752   -0.5997    0.4748 N.2     1  LIG1        0.0000
     16 C16        -3.4448    0.4008   -0.1524 C.2     1  LIG1        0.0000
     17 C17        -4.8397    0.4154   -0.7556 C.3     1  LIG1        0.0000
     18 C18        -5.5056   -0.9314   -0.5250 C.3     1  LIG1        0.0000
     19 C19        -6.9007   -0.9167   -1.1282 C.3     1  LIG1        0.0000
     20 C20        -4.6801   -2.0242   -1.1841 C.3     1  LIG1        0.0000
     21 C21        -5.6020   -1.1999    0.9680 C.3     1  LIG1        0.0000
     22 N22        -2.5440    1.4202   -0.1615 N.pl3   1  LIG1        0.0000
     23 C23        -2.7425    2.7490   -0.7558 C.3     1  LIG1        0.0000
     24 C24        -1.8609    2.8909   -1.9850 C.ar    1  LIG1        0.0000
     25 C25        -1.0508    4.0126   -2.1248 C.ar    1  LIG1        0.0000
     26 C26        -0.2406    4.1497   -3.2472 C.ar    1  LIG1        0.0000
     27 C27        -0.2538    3.1558   -4.2202 C.ar    1  LIG1        0.0000
     28 C28         0.5892    3.2939   -5.3918 C.2     1  LIG1        0.0000
     29 N29         0.6717    2.3971   -6.4140 N.2     1  LIG1        0.0000
     30 C30         1.5364    2.8812   -7.2766 C.2     1  LIG1        0.0000
     31 N31         1.9859    4.0721   -6.7864 N.pl3   1  LIG1        0.0000
     32 N32         1.3946    4.3018   -5.6355 N.2     1  LIG1        0.0000
     33 C33        -1.0619    2.0308   -4.0890 C.ar    1  LIG1        0.0000
     34 C34        -1.8688    1.9018   -2.9637 C.ar    1  LIG1        0.0000
     35 N35         1.8678    1.8977    3.1879 N.2     1  LIG1        0.0000
     36 H           2.6383    2.6952    5.6042 H       1  LIG1        0.0000
     37 H           2.6539    4.6704   -7.2289 H       1  LIG1        0.0000
     38 H           6.7800    3.4672    8.2738 H       1  LIG1        0.0000
     39 H           6.8593    2.1989    7.2482 H       1  LIG1        0.0000
     40 H           7.2397    3.6979    6.7240 H       1  LIG1        0.0000
     41 H           4.5943    2.8748    7.5373 H       1  LIG1        0.0000
     42 H           4.9748    4.3739    7.0131 H       1  LIG1        0.0000
     43 H           1.9617    4.8961    4.9973 H       1  LIG1        0.0000
     44 H           3.1836    4.9641    6.0785 H       1  LIG1        0.0000
     45 H           3.4801    5.2241    4.4938 H       1  LIG1        0.0000
     46 H           1.4802    0.7954    0.1471 H       1  LIG1        0.0000
     47 H           0.7954    0.1471    1.4802 H       1  LIG1        0.0000
     48 H           0.6471    3.5276    0.8027 H       1  LIG1        0.0000
     49 H          -0.5665    3.4578   -0.2877 H       1  LIG1        0.0000
     50 H          -0.9058    3.5350    1.3078 H       1  LIG1        0.0000
     51 H          -4.7764    0.5921   -1.7378 H       1  LIG1        0.0000
     52 H          -5.3829    1.1344   -0.3219 H       1  LIG1        0.0000
     53 H          -7.3388   -1.8027   -0.9764 H       1  LIG1        0.0000
     54 H          -7.4439   -0.1977   -0.6945 H       1  LIG1        0.0000
     55 H          -6.8374   -0.7400   -2.1104 H       1  LIG1        0.0000
     56 H          -5.1182   -2.9103   -1.0324 H       1  LIG1        0.0000
     57 H          -4.6167   -1.8476   -2.1663 H       1  LIG1        0.0000
     58 H          -3.7623   -2.0339   -0.7873 H       1  LIG1        0.0000
     59 H          -6.0401   -2.0859    1.1198 H       1  LIG1        0.0000
     60 H          -4.6841   -1.2096    1.3649 H       1  LIG1        0.0000
     61 H          -6.1451   -0.4809    1.4017 H       1  LIG1        0.0000
     62 H          -2.4991    3.4525   -0.0880 H       1  LIG1        0.0000
     63 H          -3.7012    2.8566   -1.0190 H       1  LIG1        0.0000
     64 H          -1.0508    4.7206   -1.4186 H       1  LIG1        0.0000
     65 H           0.3447    4.9536   -3.3533 H       1  LIG1        0.0000
     66 H           1.8147    2.4539   -8.1369 H       1  LIG1        0.0000
     67 H          -1.0624    1.3231   -4.7955 H       1  LIG1        0.0000
     68 H          -2.4547    1.0984   -2.8580 H       1  LIG1        0.0000
@<TRIPOS>BOND
     1     1     2    1
     2     2     3    1
     3     3     4    1
     4     4     5    1
     5     4     6    1
     6     6     7    2
     7     7     8    1
     8     8     9    1
     9     9    10    1
    10    10    11    1
    11    11    12    1
    12    11    13    1
    13    13    14    2
    14    14    15    1
    15    15    16    2
    16    16    17    1
    17    17    18    1
    18    18    19    1
    19    18    20    1
    20    18    21    1
    21    16    22    1
    22    22    13    1
    23    22    23    1
    24    23    24    1
    25    24    25   ar
    26    25    26   ar
    27    26    27   ar
    28    27    28    1
    29    28    29    1
    30    29    30    2
    31    30    31    1
    32    31    32    1
    33    32    28    2
    34    27    33   ar
    35    33    34   ar
    36    34    24   ar
    37     9    35    2
    38    35     6    1
    39     4    36    1
    40    31    37    1
    41     1    38    1
    42     1    39    1
    43     1    40    1
    44     2    41    1
    45     2    42    1
    46     5    43    1
    47     5    44    1
    48     5    45    1
    49    10    46    1
    50    10    47    1
    51    12    48    1
    52    12    49    1
    53    12    50    1
    54    17    51    1
    55    17    52    1
    56    19    53    1
    57    19    54    1
    58    19    55    1
    59    20    56    1
    60    20    57    1
    61    20    58    1
    62    21    59    1
    63    21    60    1
    64    21    61    1
    65    23    62    1
    66    23    63    1
    67    25    64    1
    68    26    65    1
    69    30    66    1
    70    33    67    1
    71    34    68    1
