@<TRIPOS>MOLECULE
*****
 68 71 0 0 0
SMALL
USER_CHARGES

@<TRIPOS>ATOM
      1 C1          6.6418    3.1717    7.3286 C.3     1  LIG1        0.0000
      2 C2          5.1923    3.4011    6.9328 C.3     1  LIG1        0.0000
      3 S3          4.9421    2.8662    5.2218 S.3     1  LIG1        0.0000
      4 C4          3.1872    3.2169    4.9511 C.3     1  LIG1        0.0000
      5 C5          2.9312    4.7024    5.1469 C.3     1  LIG1        0.0000
      6 C6          2.8037    2.8192    3.5357 C.2     1  LIG1        0.0000
      7 N7          3.3203    3.3017    2.4340 N.2     1  LIG1        0.0000
      8 O8          2.7648    2.7409    1.4446 O.2     1  LIG1        0.0000
      9 C9          1.8781    1.8781    1.8781 C.2     1  LIG1        0.0000
     10 C10         1.0000    1.0000    1.0000 C.3     1  LIG1        0.0000
     11 N11        -0.2538    1.7059    0.6992 N.pl3   1  LIG1        0.0000
     12 C12        -0.2863    2.7295   -0.3553 C.3     1  LIG1        0.0000
     13 C13        -1.4144    1.4041    1.4154 C.2     1  LIG1        0.0000
     14 N14        -1.5266    0.5194    2.3753 N.2     1  LIG1        0.0000
     15 N15        -2.7754    0.5055    2.8060 N.2     1  LIG1        0.0000
     16 C16        -3.4842    1.3835    2.1386 C.2     1  LIG1        0.0000
     17 C17        -4.9622    1.6847    2.3251 C.3     1  LIG1        0.0000
     18 C18        -5.5243    0.8007    3.4264 C.3     1  LIG1        0.0000
     19 C19        -7.0024    1.1020    3.6130 C.3     1  LIG1        0.0000
     20 C20        -5.3493   -0.6596    3.0429 C.3     1  LIG1        0.0000
     21 C21        -4.7833    1.0759    4.7248 C.3     1  LIG1        0.0000
     22 N22        -2.6413    1.9687    1.2454 N.pl3   1  LIG1        0.0000
     23 C23        -2.9922    3.0188    0.2796 C.3     1  LIG1        0.0000
     24 C24        -2.3439    4.3279    0.6971 C.ar    1  LIG1        0.0000
     25 C25        -1.5619    4.3726    1.8461 C.ar    1  LIG1        0.0000
     26 C26        -0.9647    5.5673    2.2348 C.ar    1  LIG1        0.0000
     27 C27        -1.1613    6.7078    1.4629 C.ar    1  LIG1        0.0000
     28 C28        -0.5407    7.9553    1.8637 C.2     1  LIG1        0.0000
     29 N29        -0.6509    9.1399    1.1997 N.2     1  LIG1        0.0000
     30 C30         0.0496   10.0222    1.8758 C.2     1  LIG1        0.0000
     31 N31         0.5906    9.3825    2.9522 N.pl3   1  LIG1        0.0000
     32 N32         0.2173    8.1229    2.9227 N.2     1  LIG1        0.0000
     33 C33        -1.9430    6.6723    0.3125 C.ar    1  LIG1        0.0000
     34 C34        -2.5362    5.4737   -0.0687 C.ar    1  LIG1        0.0000
     35 N35         1.8678    1.8977    3.1879 N.2     1  LIG1        0.0000
     36 H           2.6383    2.6952    5.6042 H       1  LIG1        0.0000
     37 H           1.1738    9.8021    3.6478 H       1  LIG1        0.0000
     38 H           6.7800    3.4672    8.2738 H       1  LIG1        0.0000
     39 H           6.8593    2.1989    7.2482 H       1  LIG1        0.0000
     40 H           7.2397    3.6979    6.7240 H       1  LIG1        0.0000
     41 H           4.5943    2.8748    7.5373 H       1  LIG1        0.0000
     42 H           4.9748    4.3739    7.0131 H       1  LIG1        0.0000
     43 H           1.9617    4.8961    4.9973 H       1  LIG1        0.0000
     44 H           3.1836    4.9641    6.0785 H       1  LIG1        0.0000
     45 H           3.4801    5.2241    4.4938 H       1  LIG1        0.0000
     46 H           1.4802    0.7954    0.1471 H       1  LIG1        0.0000
     47 H           0.7954    0.1471    1.4802 H       1  LIG1        0.0000
     48 H           0.6230    2.8179   -0.7622 H       1  LIG1        0.0000
     49 H          -0.9424    2.4609   -1.0606 H       1  LIG1        0.0000
     50 H          -0.5614    3.6062    0.0394 H       1  LIG1        0.0000
     51 H          -5.4496    1.5037    1.4709 H       1  LIG1        0.0000
     52 H          -5.0773    2.6455    2.5775 H       1  LIG1        0.0000
     53 H          -7.3723    0.5204    4.3376 H       1  LIG1        0.0000
     54 H          -7.1176    2.0628    3.8654 H       1  LIG1        0.0000
     55 H          -7.4899    0.9210    2.7588 H       1  LIG1        0.0000
     56 H          -5.7192   -1.2412    3.7674 H       1  LIG1        0.0000
     57 H          -5.8368   -0.8406    2.1887 H       1  LIG1        0.0000
     58 H          -4.3769   -0.8578    2.9201 H       1  LIG1        0.0000
     59 H          -5.1532    0.4943    5.4493 H       1  LIG1        0.0000
     60 H          -3.8109    0.8777    4.6020 H       1  LIG1        0.0000
     61 H          -4.8985    2.0366    4.9771 H       1  LIG1        0.0000
     62 H          -3.9856    3.1314    0.2560 H       1  LIG1        0.0000
     63 H          -2.6644    2.7592   -0.6288 H       1  LIG1        0.0000
     64 H          -1.4288    3.5460    2.3929 H       1  LIG1        0.0000
     65 H          -0.4006    5.6059    3.0596 H       1  LIG1        0.0000
     66 H           0.1652   10.9879    1.6432 H       1  LIG1        0.0000
     67 H          -2.0766    7.4991   -0.2339 H       1  LIG1        0.0000
     68 H          -3.1010    5.4353   -0.8930 H       1  LIG1        0.0000
@<TRIPOS>BOND
     1     1     2    1
     2     2     3    1
     3     3     4    1
     4     4     5    1
     5     4     6    1
     6     6     7    2
     7     7     8    1
     8     8     9    1
     9     9    10    1
    10    10    11    1
    11    11    12    1
    12    11    13    1
    13    13    14    2
    14    14    15    1
    15    15    16    2
    16    16    17    1
    17    17    18    1
    18    18    19    1
    19    18    20    1
    20    18    21    1
    21    16    22    1
    22    22    13    1
    23    22    23    1
    24    23    24    1
    25    24    25   ar
    26    25    26   ar
    27    26    27   ar
    28    27    28    1
    29    28    29    1
    30    29    30    2
    31    30    31    1
    32    31    32    1
    33    32    28    2
    34    27    33   ar
    35    33    34   ar
    36    34    24   ar
    37     9    35    2
    38    35     6    1
    39     4    36    1
    40    31    37    1
    41     1    38    1
    42     1    39    1
    43     1    40    1
    44     2    41    1
    45     2    42    1
    46     5    43    1
    47     5    44    1
    48     5    45    1
    49    10    46    1
    50    10    47    1
    51    12    48    1
    52    12    49    1
    53    12    50    1
    54    17    51    1
    55    17    52    1
    56    19    53    1
    57    19    54    1
    58    19    55    1
    59    20    56    1
    60    20    57    1
    61    20    58    1
    62    21    59    1
    63    21    60    1
    64    21    61    1
    65    23    62    1
    66    23    63    1
    67    25    64    1
    68    26    65    1
    69    30    66    1
    70    33    67    1
    71    34    68    1
