@<TRIPOS>MOLECULE
*****
 68 71 0 0 0
SMALL
USER_CHARGES

@<TRIPOS>ATOM
      1 C1          6.6418    3.1717    7.3286 C.3     1  LIG1        0.0000
      2 C2          5.1923    3.4011    6.9328 C.3     1  LIG1        0.0000
      3 S3          4.9421    2.8662    5.2218 S.3     1  LIG1        0.0000
      4 C4          3.1872    3.2169    4.9511 C.3     1  LIG1        0.0000
      5 C5          2.9312    4.7024    5.1469 C.3     1  LIG1        0.0000
      6 C6          2.8037    2.8192    3.5357 C.2     1  LIG1        0.0000
      7 N7          3.3203    3.3017    2.4340 N.2     1  LIG1        0.0000
      8 O8          2.7648    2.7409    1.4446 O.2     1  LIG1        0.0000
      9 C9          1.8781    1.8781    1.8781 C.2     1  LIG1        0.0000
     10 C10         1.0000    1.0000    1.0000 C.3     1  LIG1        0.0000
     11 N11        -0.2538    1.7059    0.6992 N.pl3   1  LIG1        0.0000
     12 C12        -0.4851    3.0546    1.2363 C.3     1  LIG1        0.0000
     13 C13        -1.2255    1.0952   -0.0969 C.2     1  LIG1        0.0000
     14 N14        -2.3812    1.6071   -0.4417 N.2     1  LIG1        0.0000
     15 N15        -3.0346    0.7347   -1.1881 N.2     1  LIG1        0.0000
     16 C16        -2.3099   -0.3468   -1.3428 C.2     1  LIG1        0.0000
     17 C17        -2.6918   -1.5877   -2.1329 C.3     1  LIG1        0.0000
     18 C18        -4.0729   -1.3976   -2.7385 C.3     1  LIG1        0.0000
     19 C19        -4.4548   -2.6387   -3.5287 C.3     1  LIG1        0.0000
     20 C20        -5.0863   -1.1720   -1.6284 C.3     1  LIG1        0.0000
     21 C21        -4.0586   -0.1921   -3.6643 C.3     1  LIG1        0.0000
     22 N22        -1.1530   -0.1437   -0.6564 N.pl3   1  LIG1        0.0000
     23 C23        -0.0326   -1.0873   -0.5447 C.3     1  LIG1        0.0000
     24 C24        -0.2395   -1.9779    0.6687 C.ar    1  LIG1        0.0000
     25 C25        -0.5391   -1.4045    1.8998 C.ar    1  LIG1        0.0000
     26 C26        -0.7303   -2.2131    3.0154 C.ar    1  LIG1        0.0000
     27 C27        -0.6170   -3.5931    2.8818 C.ar    1  LIG1        0.0000
     28 C28        -0.8157   -4.4402    4.0416 C.2     1  LIG1        0.0000
     29 N29        -0.7352   -5.8001    4.0479 N.2     1  LIG1        0.0000
     30 C30        -0.9757   -6.1904    5.2792 C.2     1  LIG1        0.0000
     31 N31        -1.2049   -5.0740    6.0287 N.pl3   1  LIG1        0.0000
     32 N32        -1.1029   -4.0191    5.2517 N.2     1  LIG1        0.0000
     33 C33        -0.3166   -4.1751    1.6543 C.ar    1  LIG1        0.0000
     34 C34        -0.1270   -3.3592    0.5442 C.ar    1  LIG1        0.0000
     35 N35         1.8678    1.8977    3.1879 N.2     1  LIG1        0.0000
     36 H           2.6383    2.6952    5.6042 H       1  LIG1        0.0000
     37 H          -1.4154   -5.0605    7.0061 H       1  LIG1        0.0000
     38 H           6.7800    3.4672    8.2738 H       1  LIG1        0.0000
     39 H           6.8593    2.1989    7.2482 H       1  LIG1        0.0000
     40 H           7.2397    3.6979    6.7240 H       1  LIG1        0.0000
     41 H           4.5943    2.8748    7.5373 H       1  LIG1        0.0000
     42 H           4.9748    4.3739    7.0131 H       1  LIG1        0.0000
     43 H           1.9617    4.8961    4.9973 H       1  LIG1        0.0000
     44 H           3.1836    4.9641    6.0785 H       1  LIG1        0.0000
     45 H           3.4801    5.2241    4.4938 H       1  LIG1        0.0000
     46 H           1.4802    0.7954    0.1471 H       1  LIG1        0.0000
     47 H           0.7954    0.1471    1.4802 H       1  LIG1        0.0000
     48 H           0.3054    3.3371    1.7797 H       1  LIG1        0.0000
     49 H          -0.6166    3.6963    0.4807 H       1  LIG1        0.0000
     50 H          -1.3014    3.0480    1.8138 H       1  LIG1        0.0000
     51 H          -2.7012   -2.3808   -1.5239 H       1  LIG1        0.0000
     52 H          -2.0250   -1.7362   -2.8632 H       1  LIG1        0.0000
     53 H          -5.3634   -2.5136   -3.9271 H       1  LIG1        0.0000
     54 H          -3.7881   -2.7871   -4.2590 H       1  LIG1        0.0000
     55 H          -4.4642   -3.4318   -2.9197 H       1  LIG1        0.0000
     56 H          -5.9949   -1.0469   -2.0269 H       1  LIG1        0.0000
     57 H          -5.0957   -1.9651   -1.0194 H       1  LIG1        0.0000
     58 H          -4.8350   -0.3555   -1.1086 H       1  LIG1        0.0000
     59 H          -4.9672   -0.0671   -4.0627 H       1  LIG1        0.0000
     60 H          -3.8073    0.6244   -3.1444 H       1  LIG1        0.0000
     61 H          -3.3919   -0.3406   -4.3946 H       1  LIG1        0.0000
     62 H           0.8225   -0.5789   -0.4431 H       1  LIG1        0.0000
     63 H           0.0112   -1.6519   -1.3689 H       1  LIG1        0.0000
     64 H          -0.6171   -0.4111    1.9830 H       1  LIG1        0.0000
     65 H          -0.9467   -1.8070    3.9033 H       1  LIG1        0.0000
     66 H          -0.9884   -7.1349    5.6075 H       1  LIG1        0.0000
     67 H          -0.2379   -5.1685    1.5712 H       1  LIG1        0.0000
     68 H           0.0902   -3.7652   -0.3435 H       1  LIG1        0.0000
@<TRIPOS>BOND
     1     1     2    1
     2     2     3    1
     3     3     4    1
     4     4     5    1
     5     4     6    1
     6     6     7    2
     7     7     8    1
     8     8     9    1
     9     9    10    1
    10    10    11    1
    11    11    12    1
    12    11    13    1
    13    13    14    2
    14    14    15    1
    15    15    16    2
    16    16    17    1
    17    17    18    1
    18    18    19    1
    19    18    20    1
    20    18    21    1
    21    16    22    1
    22    22    13    1
    23    22    23    1
    24    23    24    1
    25    24    25   ar
    26    25    26   ar
    27    26    27   ar
    28    27    28    1
    29    28    29    1
    30    29    30    2
    31    30    31    1
    32    31    32    1
    33    32    28    2
    34    27    33   ar
    35    33    34   ar
    36    34    24   ar
    37     9    35    2
    38    35     6    1
    39     4    36    1
    40    31    37    1
    41     1    38    1
    42     1    39    1
    43     1    40    1
    44     2    41    1
    45     2    42    1
    46     5    43    1
    47     5    44    1
    48     5    45    1
    49    10    46    1
    50    10    47    1
    51    12    48    1
    52    12    49    1
    53    12    50    1
    54    17    51    1
    55    17    52    1
    56    19    53    1
    57    19    54    1
    58    19    55    1
    59    20    56    1
    60    20    57    1
    61    20    58    1
    62    21    59    1
    63    21    60    1
    64    21    61    1
    65    23    62    1
    66    23    63    1
    67    25    64    1
    68    26    65    1
    69    30    66    1
    70    33    67    1
    71    34    68    1
