@<TRIPOS>MOLECULE
*****
 68 71 0 0 0
SMALL
USER_CHARGES

@<TRIPOS>ATOM
      1 C1          6.6418    3.1717    7.3286 C.3     1  LIG1        0.0000
      2 C2          5.1923    3.4011    6.9328 C.3     1  LIG1        0.0000
      3 S3          4.9421    2.8662    5.2218 S.3     1  LIG1        0.0000
      4 C4          3.1872    3.2169    4.9511 C.3     1  LIG1        0.0000
      5 C5          2.9312    4.7024    5.1469 C.3     1  LIG1        0.0000
      6 C6          2.8037    2.8192    3.5357 C.2     1  LIG1        0.0000
      7 N7          3.3203    3.3017    2.4340 N.2     1  LIG1        0.0000
      8 O8          2.7648    2.7409    1.4446 O.2     1  LIG1        0.0000
      9 C9          1.8781    1.8781    1.8781 C.2     1  LIG1        0.0000
     10 C10         1.0000    1.0000    1.0000 C.3     1  LIG1        0.0000
     11 N11        -0.2538    1.7059    0.6992 N.pl3   1  LIG1        0.0000
     12 C12        -0.2863    2.7295   -0.3553 C.3     1  LIG1        0.0000
     13 C13        -1.4144    1.4041    1.4154 C.2     1  LIG1        0.0000
     14 N14        -1.8135    1.9762    2.5244 N.2     1  LIG1        0.0000
     15 N15        -2.9476    1.4212    2.9129 N.2     1  LIG1        0.0000
     16 C16        -3.3009    0.4908    2.0594 C.2     1  LIG1        0.0000
     17 C17        -4.5414   -0.3840    2.1350 C.3     1  LIG1        0.0000
     18 C18        -5.3422   -0.0214    3.3751 C.3     1  LIG1        0.0000
     19 C19        -6.5828   -0.8964    3.4507 C.3     1  LIG1        0.0000
     20 C20        -4.4885   -0.2447    4.6127 C.3     1  LIG1        0.0000
     21 C21        -5.7560    1.4393    3.3018 C.3     1  LIG1        0.0000
     22 N22        -2.3404    0.4586    1.0965 N.pl3   1  LIG1        0.0000
     23 C23        -2.3123   -0.4307   -0.0725 C.3     1  LIG1        0.0000
     24 C24        -2.0363   -1.8544    0.3806 C.ar    1  LIG1        0.0000
     25 C25        -0.7241   -2.3064    0.4678 C.ar    1  LIG1        0.0000
     26 C26        -0.4631   -3.6084    0.8821 C.ar    1  LIG1        0.0000
     27 C27        -1.5268   -4.4449    1.2044 C.ar    1  LIG1        0.0000
     28 C28        -1.2600   -5.8028    1.6371 C.2     1  LIG1        0.0000
     29 N29        -2.2058   -6.7207    1.9820 N.2     1  LIG1        0.0000
     30 C30        -1.5670   -7.8205    2.3117 C.2     1  LIG1        0.0000
     31 N31        -0.2317   -7.5800    2.1714 N.pl3   1  LIG1        0.0000
     32 N32        -0.0693   -6.3426    1.7599 N.2     1  LIG1        0.0000
     33 C33        -2.8428   -4.0014    1.1191 C.ar    1  LIG1        0.0000
     34 C34        -3.0945   -2.6982    0.7039 C.ar    1  LIG1        0.0000
     35 N35         1.8678    1.8977    3.1879 N.2     1  LIG1        0.0000
     36 H           2.6383    2.6952    5.6042 H       1  LIG1        0.0000
     37 H           0.5014   -8.2359    2.3515 H       1  LIG1        0.0000
     38 H           6.7800    3.4672    8.2738 H       1  LIG1        0.0000
     39 H           6.8593    2.1989    7.2482 H       1  LIG1        0.0000
     40 H           7.2397    3.6979    6.7240 H       1  LIG1        0.0000
     41 H           4.5943    2.8748    7.5373 H       1  LIG1        0.0000
     42 H           4.9748    4.3739    7.0131 H       1  LIG1        0.0000
     43 H           1.9617    4.8961    4.9973 H       1  LIG1        0.0000
     44 H           3.1836    4.9641    6.0785 H       1  LIG1        0.0000
     45 H           3.4801    5.2241    4.4938 H       1  LIG1        0.0000
     46 H           1.4802    0.7954    0.1471 H       1  LIG1        0.0000
     47 H           0.7954    0.1471    1.4802 H       1  LIG1        0.0000
     48 H           0.6230    2.8179   -0.7622 H       1  LIG1        0.0000
     49 H          -0.9424    2.4609   -1.0606 H       1  LIG1        0.0000
     50 H          -0.5614    3.6062    0.0394 H       1  LIG1        0.0000
     51 H          -4.2691   -1.3450    2.1832 H       1  LIG1        0.0000
     52 H          -5.1030   -0.2371    1.3208 H       1  LIG1        0.0000
     53 H          -7.1097   -0.6579    4.2665 H       1  LIG1        0.0000
     54 H          -7.1444   -0.7495    2.6365 H       1  LIG1        0.0000
     55 H          -6.3105   -1.8574    3.4989 H       1  LIG1        0.0000
     56 H          -5.0153   -0.0062    5.4285 H       1  LIG1        0.0000
     57 H          -4.2162   -1.2057    4.6609 H       1  LIG1        0.0000
     58 H          -3.6723    0.3309    4.5629 H       1  LIG1        0.0000
     59 H          -6.2829    1.6778    4.1176 H       1  LIG1        0.0000
     60 H          -4.9398    2.0149    3.2520 H       1  LIG1        0.0000
     61 H          -6.3177    1.5862    2.4876 H       1  LIG1        0.0000
     62 H          -1.5915   -0.1348   -0.6993 H       1  LIG1        0.0000
     63 H          -3.1957   -0.3950   -0.5398 H       1  LIG1        0.0000
     64 H           0.0319   -1.6956    0.2326 H       1  LIG1        0.0000
     65 H           0.4783   -3.9393    0.9476 H       1  LIG1        0.0000
     66 H          -1.9842   -8.6785    2.6112 H       1  LIG1        0.0000
     67 H          -3.5988   -4.6125    1.3536 H       1  LIG1        0.0000
     68 H          -4.0359   -2.3676    0.6376 H       1  LIG1        0.0000
@<TRIPOS>BOND
     1     1     2    1
     2     2     3    1
     3     3     4    1
     4     4     5    1
     5     4     6    1
     6     6     7    2
     7     7     8    1
     8     8     9    1
     9     9    10    1
    10    10    11    1
    11    11    12    1
    12    11    13    1
    13    13    14    2
    14    14    15    1
    15    15    16    2
    16    16    17    1
    17    17    18    1
    18    18    19    1
    19    18    20    1
    20    18    21    1
    21    16    22    1
    22    22    13    1
    23    22    23    1
    24    23    24    1
    25    24    25   ar
    26    25    26   ar
    27    26    27   ar
    28    27    28    1
    29    28    29    1
    30    29    30    2
    31    30    31    1
    32    31    32    1
    33    32    28    2
    34    27    33   ar
    35    33    34   ar
    36    34    24   ar
    37     9    35    2
    38    35     6    1
    39     4    36    1
    40    31    37    1
    41     1    38    1
    42     1    39    1
    43     1    40    1
    44     2    41    1
    45     2    42    1
    46     5    43    1
    47     5    44    1
    48     5    45    1
    49    10    46    1
    50    10    47    1
    51    12    48    1
    52    12    49    1
    53    12    50    1
    54    17    51    1
    55    17    52    1
    56    19    53    1
    57    19    54    1
    58    19    55    1
    59    20    56    1
    60    20    57    1
    61    20    58    1
    62    21    59    1
    63    21    60    1
    64    21    61    1
    65    23    62    1
    66    23    63    1
    67    25    64    1
    68    26    65    1
    69    30    66    1
    70    33    67    1
    71    34    68    1
