@<TRIPOS>MOLECULE
*****
 68 71 0 0 0
SMALL
USER_CHARGES

@<TRIPOS>ATOM
      1 C1          6.6418    3.1717    7.3286 C.3     1  LIG1        0.0000
      2 C2          5.1923    3.4011    6.9328 C.3     1  LIG1        0.0000
      3 S3          4.9421    2.8662    5.2218 S.3     1  LIG1        0.0000
      4 C4          3.1872    3.2169    4.9511 C.3     1  LIG1        0.0000
      5 C5          2.9312    4.7024    5.1469 C.3     1  LIG1        0.0000
      6 C6          2.8037    2.8192    3.5357 C.2     1  LIG1        0.0000
      7 N7          3.3203    3.3017    2.4340 N.2     1  LIG1        0.0000
      8 O8          2.7648    2.7409    1.4446 O.2     1  LIG1        0.0000
      9 C9          1.8781    1.8781    1.8781 C.2     1  LIG1        0.0000
     10 C10         1.0000    1.0000    1.0000 C.3     1  LIG1        0.0000
     11 N11        -0.2538    1.7059    0.6992 N.pl3   1  LIG1        0.0000
     12 C12        -0.4851    3.0546    1.2363 C.3     1  LIG1        0.0000
     13 C13        -1.2255    1.0952   -0.0969 C.2     1  LIG1        0.0000
     14 N14        -1.3232    1.1745   -1.4010 N.2     1  LIG1        0.0000
     15 N15        -2.3716    0.4761   -1.7989 N.2     1  LIG1        0.0000
     16 C16        -2.9600   -0.0695   -0.7621 C.2     1  LIG1        0.0000
     17 C17        -4.1974   -0.9517   -0.7833 C.3     1  LIG1        0.0000
     18 C18        -4.6749   -1.1205   -2.2164 C.3     1  LIG1        0.0000
     19 C19        -5.9124   -2.0029   -2.2375 C.3     1  LIG1        0.0000
     20 C20        -5.0133    0.2409   -2.8014 C.3     1  LIG1        0.0000
     21 C21        -3.5764   -1.7685   -3.0434 C.3     1  LIG1        0.0000
     22 N22        -2.2506    0.3104    0.3348 N.pl3   1  LIG1        0.0000
     23 C23        -2.5378   -0.0623    1.7265 C.3     1  LIG1        0.0000
     24 C24        -3.9664    0.3244    2.0698 C.ar    1  LIG1        0.0000
     25 C25        -4.2307    1.5848    2.5949 C.ar    1  LIG1        0.0000
     26 C26        -5.5361    1.9464    2.9115 C.ar    1  LIG1        0.0000
     27 C27        -6.5646    1.0347    2.6975 C.ar    1  LIG1        0.0000
     28 C28        -7.9269    1.4071    3.0256 C.2     1  LIG1        0.0000
     29 N29        -8.3137    2.6064    3.5434 N.2     1  LIG1        0.0000
     30 C30        -9.6174    2.5525    3.6969 C.2     1  LIG1        0.0000
     31 N31       -10.0321    1.3231    3.2760 N.pl3   1  LIG1        0.0000
     32 N32        -8.9832    0.6423    2.8722 N.2     1  LIG1        0.0000
     33 C33        -6.3091   -0.2287    2.1736 C.ar    1  LIG1        0.0000
     34 C34        -5.0012   -0.5819    1.8600 C.ar    1  LIG1        0.0000
     35 N35         1.8678    1.8977    3.1879 N.2     1  LIG1        0.0000
     36 H           2.6383    2.6952    5.6042 H       1  LIG1        0.0000
     37 H         -10.9766    0.9947    3.2749 H       1  LIG1        0.0000
     38 H           6.7800    3.4672    8.2738 H       1  LIG1        0.0000
     39 H           6.8593    2.1989    7.2482 H       1  LIG1        0.0000
     40 H           7.2397    3.6979    6.7240 H       1  LIG1        0.0000
     41 H           4.5943    2.8748    7.5373 H       1  LIG1        0.0000
     42 H           4.9748    4.3739    7.0131 H       1  LIG1        0.0000
     43 H           1.9617    4.8961    4.9973 H       1  LIG1        0.0000
     44 H           3.1836    4.9641    6.0785 H       1  LIG1        0.0000
     45 H           3.4801    5.2241    4.4938 H       1  LIG1        0.0000
     46 H           1.4802    0.7954    0.1471 H       1  LIG1        0.0000
     47 H           0.7954    0.1471    1.4802 H       1  LIG1        0.0000
     48 H           0.3054    3.3371    1.7797 H       1  LIG1        0.0000
     49 H          -0.6166    3.6963    0.4807 H       1  LIG1        0.0000
     50 H          -1.3014    3.0480    1.8138 H       1  LIG1        0.0000
     51 H          -4.9200   -0.5254   -0.2392 H       1  LIG1        0.0000
     52 H          -3.9747   -1.8474   -0.3984 H       1  LIG1        0.0000
     53 H          -6.2265   -2.1139   -3.1804 H       1  LIG1        0.0000
     54 H          -5.6897   -2.8986   -1.8526 H       1  LIG1        0.0000
     55 H          -6.6350   -1.5766   -1.6934 H       1  LIG1        0.0000
     56 H          -5.3274    0.1299   -3.7443 H       1  LIG1        0.0000
     57 H          -5.7359    0.6672   -2.2573 H       1  LIG1        0.0000
     58 H          -4.1991    0.8214   -2.7875 H       1  LIG1        0.0000
     59 H          -3.8906   -1.8796   -3.9863 H       1  LIG1        0.0000
     60 H          -2.7623   -1.1880   -3.0295 H       1  LIG1        0.0000
     61 H          -3.3538   -2.6642   -2.6585 H       1  LIG1        0.0000
     62 H          -1.9070    0.4168    2.3368 H       1  LIG1        0.0000
     63 H          -2.4239   -1.0495    1.8375 H       1  LIG1        0.0000
     64 H          -3.4825    2.2310    2.7448 H       1  LIG1        0.0000
     65 H          -5.7328    2.8514    3.2886 H       1  LIG1        0.0000
     66 H         -10.2002    3.2810    4.0571 H       1  LIG1        0.0000
     67 H          -7.0573   -0.8752    2.0244 H       1  LIG1        0.0000
     68 H          -4.8043   -1.4872    1.4836 H       1  LIG1        0.0000
@<TRIPOS>BOND
     1     1     2    1
     2     2     3    1
     3     3     4    1
     4     4     5    1
     5     4     6    1
     6     6     7    2
     7     7     8    1
     8     8     9    1
     9     9    10    1
    10    10    11    1
    11    11    12    1
    12    11    13    1
    13    13    14    2
    14    14    15    1
    15    15    16    2
    16    16    17    1
    17    17    18    1
    18    18    19    1
    19    18    20    1
    20    18    21    1
    21    16    22    1
    22    22    13    1
    23    22    23    1
    24    23    24    1
    25    24    25   ar
    26    25    26   ar
    27    26    27   ar
    28    27    28    1
    29    28    29    1
    30    29    30    2
    31    30    31    1
    32    31    32    1
    33    32    28    2
    34    27    33   ar
    35    33    34   ar
    36    34    24   ar
    37     9    35    2
    38    35     6    1
    39     4    36    1
    40    31    37    1
    41     1    38    1
    42     1    39    1
    43     1    40    1
    44     2    41    1
    45     2    42    1
    46     5    43    1
    47     5    44    1
    48     5    45    1
    49    10    46    1
    50    10    47    1
    51    12    48    1
    52    12    49    1
    53    12    50    1
    54    17    51    1
    55    17    52    1
    56    19    53    1
    57    19    54    1
    58    19    55    1
    59    20    56    1
    60    20    57    1
    61    20    58    1
    62    21    59    1
    63    21    60    1
    64    21    61    1
    65    23    62    1
    66    23    63    1
    67    25    64    1
    68    26    65    1
    69    30    66    1
    70    33    67    1
    71    34    68    1
