@<TRIPOS>MOLECULE

  70   73
SMALL
USER_CHARGES
@<TRIPOS>ATOM
   1 C1          -7.8317     2.5137    -5.8137 C.3          1    LIG   0.0000
   2 C2          -6.6213     1.7635    -6.3452 C.3          1    LIG   0.0000
   3 C3          -5.4621     1.9210    -5.3759 C.ar         1    LIG   0.0000
   4 C4          -4.5799     2.9856    -5.5254 C.ar         1    LIG   0.0000
   5 C5          -3.5163     3.1368    -4.6418 C.ar         1    LIG   0.0000
   6 C6          -3.3494     2.2133    -3.6151 C.ar         1    LIG   0.0000
   7 C7          -2.2426     2.3668    -2.6914 C.2          1    LIG   0.0000
   8 N8          -1.6833     3.4903    -2.3255 N.2          1    LIG   0.0000
   9 N9          -0.6985     3.2502    -1.4781 N.2          1    LIG   0.0000
  10 C10         -0.6183     1.9579    -1.2678 C.2          1    LIG   0.0000
  11 N11          0.2887     1.3049    -0.4259 N.pl3        1    LIG   0.0000
  12 C12          0.2714    -0.1581    -0.2794 C.3          1    LIG   0.0000
  13 C13          0.8160    -0.5372     1.0881 C.3          1    LIG   0.0000
  14 N14          2.1792     0.0034     1.1723 N.am         1    LIG   0.0000
  15 C15          3.1329    -0.6870     1.9273 C.2          1    LIG   0.0000
  16 O16          2.8311    -1.7020     2.4920 O.2          1    LIG   0.0000
  17 O17          4.3556    -0.2257     2.0182 O.3          1    LIG   0.0000
  18 C18          5.2446    -1.0015     2.8082 C.3          1    LIG   0.0000
  19 C19          6.6158    -0.3457     2.8198 C.3          1    LIG   0.0000
  20 C20          7.5675    -1.1762     3.6654 C.3          1    LIG   0.0000
  21 C21          7.1471    -0.2569     1.3984 C.3          1    LIG   0.0000
  22 C22          2.5289     1.2318     0.4438 C.3          1    LIG   0.0000
  23 C23          1.2918     2.1015     0.2940 C.3          1    LIG   0.0000
  24 N24         -1.5882     1.3777    -2.0277 N.pl3        1    LIG   0.0000
  25 C25         -1.8716    -0.0603    -2.1236 C.3          1    LIG   0.0000
  26 C26         -2.8904    -0.4476    -1.0641 C.3          1    LIG   0.0000
  27 N27         -3.1741    -1.8868    -1.1601 N.am         1    LIG   0.0000
  28 C28         -2.3075    -2.7940    -0.6096 C.2          1    LIG   0.0000
  29 O29         -1.3170    -2.4137    -0.0490 O.2          1    LIG   0.0000
  30 C30         -2.5870    -4.2120    -0.7042 C.2          1    LIG   0.0000
  31 C31         -3.6679    -4.7775    -1.3104 C.2          1    LIG   0.0000
  32 C32         -3.5205    -6.1746    -1.1581 C.2          1    LIG   0.0000
  33 N33         -2.4040    -6.3606    -0.4940 N.2          1    LIG   0.0000
  34 N34         -1.8170    -5.2203    -0.2051 N.pl3        1    LIG   0.0000
  35 C35         -4.2265     1.1446    -3.4586 C.ar         1    LIG   0.0000
  36 C36         -5.2871     1.0011    -4.3466 C.ar         1    LIG   0.0000
  37 H           -0.9568    -5.1117     0.2931 H            1    LIG   0.0000
  38 H           -8.5947     2.4101    -6.4517 H            1    LIG   0.0000
  39 H           -8.0897     2.1412    -4.9222 H            1    LIG   0.0000
  40 H           -7.6071     3.4834    -5.7174 H            1    LIG   0.0000
  41 H           -6.8460     0.7939    -6.4415 H            1    LIG   0.0000
  42 H           -6.3633     2.1360    -7.2367 H            1    LIG   0.0000
  43 H           -4.7102     3.6424    -6.2681 H            1    LIG   0.0000
  44 H           -2.8790     3.9007    -4.7436 H            1    LIG   0.0000
  45 H            0.8401    -0.5710    -0.9908 H            1    LIG   0.0000
  46 H           -0.6674    -0.4909    -0.3682 H            1    LIG   0.0000
  47 H            0.2446    -0.1414     1.8071 H            1    LIG   0.0000
  48 H            0.8344    -1.5321     1.1868 H            1    LIG   0.0000
  49 H            5.3181    -1.9209     2.4217 H            1    LIG   0.0000
  50 H            4.8951    -1.0599     3.7433 H            1    LIG   0.0000
  51 H            6.5424     0.5737     3.2063 H            1    LIG   0.0000
  52 H            8.4696    -0.7448     3.6731 H            1    LIG   0.0000
  53 H            7.2180    -1.2346     4.6005 H            1    LIG   0.0000
  54 H            7.6410    -2.0956     3.2790 H            1    LIG   0.0000
  55 H            8.0492     0.1745     1.4061 H            1    LIG   0.0000
  56 H            7.2206    -1.1763     1.0120 H            1    LIG   0.0000
  57 H            6.5210     0.2895     0.8421 H            1    LIG   0.0000
  58 H            2.8807     0.9938    -0.4615 H            1    LIG   0.0000
  59 H            3.2291     1.7330     0.9522 H            1    LIG   0.0000
  60 H            0.9428     2.3597     1.1948 H            1    LIG   0.0000
  61 H            1.5131     2.9261    -0.2267 H            1    LIG   0.0000
  62 H           -1.0276    -0.5767    -1.9790 H            1    LIG   0.0000
  63 H           -2.2383    -0.2680    -3.0304 H            1    LIG   0.0000
  64 H           -2.5237    -0.2399    -0.1573 H            1    LIG   0.0000
  65 H           -3.7344     0.0688    -1.2087 H            1    LIG   0.0000
  66 H           -3.9995    -2.2037    -1.6272 H            1    LIG   0.0000
  67 H           -4.4160    -4.2997    -1.7709 H            1    LIG   0.0000
  68 H           -4.1440    -6.8821    -1.4907 H            1    LIG   0.0000
  69 H           -4.0957     0.4874    -2.7164 H            1    LIG   0.0000
  70 H           -5.9240     0.2368    -4.2453 H            1    LIG   0.0000
@<TRIPOS>BOND
   1        1        2 1
   2        2        3 1
   3        3        4 ar
   4        4        5 ar
   5        5        6 ar
   6        6        7 1
   7        7        8 2
   8        8        9 1
   9        9       10 2
  10       10       11 1
  11       11       12 1
  12       12       13 1
  13       13       14 1
  14       14       15 am
  15       15       16 2
  16       15       17 1
  17       17       18 1
  18       18       19 1
  19       19       20 1
  20       19       21 1
  21       14       22 1
  22       22       23 1
  23       23       11 1
  24       10       24 1
  25       24        7 1
  26       24       25 1
  27       25       26 1
  28       26       27 1
  29       27       28 am
  30       28       29 2
  31       28       30 1
  32       30       31 2
  33       31       32 1
  34       32       33 2
  35       33       34 1
  36       34       30 1
  37        6       35 ar
  38       35       36 ar
  39       36        3 ar
  40       34       37 1
  41        1       38 1
  42        1       39 1
  43        1       40 1
  44        2       41 1
  45        2       42 1
  46        4       43 1
  47        5       44 1
  48       12       45 1
  49       12       46 1
  50       13       47 1
  51       13       48 1
  52       18       49 1
  53       18       50 1
  54       19       51 1
  55       20       52 1
  56       20       53 1
  57       20       54 1
  58       21       55 1
  59       21       56 1
  60       21       57 1
  61       22       58 1
  62       22       59 1
  63       23       60 1
  64       23       61 1
  65       25       62 1
  66       25       63 1
  67       26       64 1
  68       26       65 1
  69       27       66 1
  70       31       67 1
  71       32       68 1
  72       35       69 1
  73       36       70 1

@<TRIPOS>MOLECULE

  70   73
SMALL
USER_CHARGES
@<TRIPOS>ATOM
   1 C1          -7.8317     2.5137    -5.8137 C.3          1    LIG   0.0000
   2 C2          -6.6213     1.7635    -6.3452 C.3          1    LIG   0.0000
   3 C3          -5.4621     1.9210    -5.3759 C.ar         1    LIG   0.0000
   4 C4          -4.5799     2.9856    -5.5254 C.ar         1    LIG   0.0000
   5 C5          -3.5163     3.1368    -4.6418 C.ar         1    LIG   0.0000
   6 C6          -3.3494     2.2133    -3.6151 C.ar         1    LIG   0.0000
   7 C7          -2.2426     2.3668    -2.6914 C.2          1    LIG   0.0000
   8 N8          -1.6833     3.4903    -2.3255 N.2          1    LIG   0.0000
   9 N9          -0.6985     3.2502    -1.4781 N.2          1    LIG   0.0000
  10 C10         -0.6183     1.9579    -1.2678 C.2          1    LIG   0.0000
  11 N11          0.2887     1.3049    -0.4259 N.pl3        1    LIG   0.0000
  12 C12          0.2714    -0.1581    -0.2794 C.3          1    LIG   0.0000
  13 C13          0.8160    -0.5372     1.0881 C.3          1    LIG   0.0000
  14 N14          2.1792     0.0034     1.1723 N.am         1    LIG   0.0000
  15 C15          3.1329    -0.6870     1.9273 C.2          1    LIG   0.0000
  16 O16          2.9660    -1.8460     2.1898 O.2          1    LIG   0.0000
  17 O17          4.2083    -0.0684     2.3480 O.3          1    LIG   0.0000
  18 C18          4.8783    -0.6811     3.4399 C.3          1    LIG   0.0000
  19 C19          4.1627    -0.3311     4.7344 C.3          1    LIG   0.0000
  20 C20          5.1053    -0.5432     5.9078 C.3          1    LIG   0.0000
  21 C21          3.7240     1.1237     4.6934 C.3          1    LIG   0.0000
  22 C22          2.5289     1.2318     0.4438 C.3          1    LIG   0.0000
  23 C23          1.2918     2.1015     0.2940 C.3          1    LIG   0.0000
  24 N24         -1.5882     1.3777    -2.0277 N.pl3        1    LIG   0.0000
  25 C25         -1.8716    -0.0603    -2.1236 C.3          1    LIG   0.0000
  26 C26         -2.8904    -0.4476    -1.0641 C.3          1    LIG   0.0000
  27 N27         -3.1741    -1.8868    -1.1601 N.am         1    LIG   0.0000
  28 C28         -2.3075    -2.7940    -0.6096 C.2          1    LIG   0.0000
  29 O29         -1.3170    -2.4137    -0.0490 O.2          1    LIG   0.0000
  30 C30         -2.5870    -4.2120    -0.7042 C.2          1    LIG   0.0000
  31 C31         -3.6679    -4.7775    -1.3104 C.2          1    LIG   0.0000
  32 C32         -3.5205    -6.1746    -1.1581 C.2          1    LIG   0.0000
  33 N33         -2.4040    -6.3606    -0.4940 N.2          1    LIG   0.0000
  34 N34         -1.8170    -5.2203    -0.2051 N.pl3        1    LIG   0.0000
  35 C35         -4.2265     1.1446    -3.4586 C.ar         1    LIG   0.0000
  36 C36         -5.2871     1.0011    -4.3466 C.ar         1    LIG   0.0000
  37 H           -0.9568    -5.1117     0.2931 H            1    LIG   0.0000
  38 H           -8.5947     2.4101    -6.4517 H            1    LIG   0.0000
  39 H           -8.0897     2.1412    -4.9222 H            1    LIG   0.0000
  40 H           -7.6071     3.4834    -5.7174 H            1    LIG   0.0000
  41 H           -6.8460     0.7939    -6.4415 H            1    LIG   0.0000
  42 H           -6.3633     2.1360    -7.2367 H            1    LIG   0.0000
  43 H           -4.7102     3.6424    -6.2681 H            1    LIG   0.0000
  44 H           -2.8790     3.9007    -4.7436 H            1    LIG   0.0000
  45 H            0.8401    -0.5710    -0.9908 H            1    LIG   0.0000
  46 H           -0.6674    -0.4909    -0.3682 H            1    LIG   0.0000
  47 H            0.2446    -0.1414     1.8071 H            1    LIG   0.0000
  48 H            0.8344    -1.5321     1.1868 H            1    LIG   0.0000
  49 H            5.8212    -0.3505     3.4803 H            1    LIG   0.0000
  50 H            4.8781    -1.6735     3.3167 H            1    LIG   0.0000
  51 H            3.3603    -0.9183     4.8410 H            1    LIG   0.0000
  52 H            4.6345    -0.3129     6.7594 H            1    LIG   0.0000
  53 H            5.3939    -1.5003     5.9347 H            1    LIG   0.0000
  54 H            5.9077     0.0440     5.8011 H            1    LIG   0.0000
  55 H            3.2532     1.3540     5.5451 H            1    LIG   0.0000
  56 H            4.5264     1.7109     4.5868 H            1    LIG   0.0000
  57 H            3.1039     1.2632     3.9215 H            1    LIG   0.0000
  58 H            2.8807     0.9938    -0.4615 H            1    LIG   0.0000
  59 H            3.2291     1.7330     0.9522 H            1    LIG   0.0000
  60 H            0.9428     2.3597     1.1948 H            1    LIG   0.0000
  61 H            1.5131     2.9261    -0.2267 H            1    LIG   0.0000
  62 H           -1.0276    -0.5767    -1.9790 H            1    LIG   0.0000
  63 H           -2.2383    -0.2680    -3.0304 H            1    LIG   0.0000
  64 H           -2.5237    -0.2399    -0.1573 H            1    LIG   0.0000
  65 H           -3.7344     0.0688    -1.2087 H            1    LIG   0.0000
  66 H           -3.9995    -2.2037    -1.6272 H            1    LIG   0.0000
  67 H           -4.4160    -4.2997    -1.7709 H            1    LIG   0.0000
  68 H           -4.1440    -6.8821    -1.4907 H            1    LIG   0.0000
  69 H           -4.0957     0.4874    -2.7164 H            1    LIG   0.0000
  70 H           -5.9240     0.2368    -4.2453 H            1    LIG   0.0000
@<TRIPOS>BOND
   1        1        2 1
   2        2        3 1
   3        3        4 ar
   4        4        5 ar
   5        5        6 ar
   6        6        7 1
   7        7        8 2
   8        8        9 1
   9        9       10 2
  10       10       11 1
  11       11       12 1
  12       12       13 1
  13       13       14 1
  14       14       15 am
  15       15       16 2
  16       15       17 1
  17       17       18 1
  18       18       19 1
  19       19       20 1
  20       19       21 1
  21       14       22 1
  22       22       23 1
  23       23       11 1
  24       10       24 1
  25       24        7 1
  26       24       25 1
  27       25       26 1
  28       26       27 1
  29       27       28 am
  30       28       29 2
  31       28       30 1
  32       30       31 2
  33       31       32 1
  34       32       33 2
  35       33       34 1
  36       34       30 1
  37        6       35 ar
  38       35       36 ar
  39       36        3 ar
  40       34       37 1
  41        1       38 1
  42        1       39 1
  43        1       40 1
  44        2       41 1
  45        2       42 1
  46        4       43 1
  47        5       44 1
  48       12       45 1
  49       12       46 1
  50       13       47 1
  51       13       48 1
  52       18       49 1
  53       18       50 1
  54       19       51 1
  55       20       52 1
  56       20       53 1
  57       20       54 1
  58       21       55 1
  59       21       56 1
  60       21       57 1
  61       22       58 1
  62       22       59 1
  63       23       60 1
  64       23       61 1
  65       25       62 1
  66       25       63 1
  67       26       64 1
  68       26       65 1
  69       27       66 1
  70       31       67 1
  71       32       68 1
  72       35       69 1
  73       36       70 1

@<TRIPOS>MOLECULE

  70   73
SMALL
USER_CHARGES
@<TRIPOS>ATOM
   1 C1          -7.8317     2.5137    -5.8137 C.3          1    LIG   0.0000
   2 C2          -6.6213     1.7635    -6.3452 C.3          1    LIG   0.0000
   3 C3          -5.4621     1.9210    -5.3759 C.ar         1    LIG   0.0000
   4 C4          -4.5799     2.9856    -5.5254 C.ar         1    LIG   0.0000
   5 C5          -3.5163     3.1368    -4.6418 C.ar         1    LIG   0.0000
   6 C6          -3.3494     2.2133    -3.6151 C.ar         1    LIG   0.0000
   7 C7          -2.2426     2.3668    -2.6914 C.2          1    LIG   0.0000
   8 N8          -1.6833     3.4903    -2.3255 N.2          1    LIG   0.0000
   9 N9          -0.6985     3.2502    -1.4781 N.2          1    LIG   0.0000
  10 C10         -0.6183     1.9579    -1.2678 C.2          1    LIG   0.0000
  11 N11          0.2887     1.3049    -0.4259 N.pl3        1    LIG   0.0000
  12 C12          0.2714    -0.1581    -0.2794 C.3          1    LIG   0.0000
  13 C13          0.8160    -0.5372     1.0881 C.3          1    LIG   0.0000
  14 N14          2.1792     0.0034     1.1723 N.am         1    LIG   0.0000
  15 C15          3.1329    -0.6870     1.9273 C.2          1    LIG   0.0000
  16 O16          4.2529    -0.2644     2.0105 O.2          1    LIG   0.0000
  17 O17          2.8034    -1.7950     2.5437 O.3          1    LIG   0.0000
  18 C18          3.8449    -2.4167     3.2821 C.3          1    LIG   0.0000
  19 C19          3.3158    -3.6822     3.9372 C.3          1    LIG   0.0000
  20 C20          4.4306    -4.3477     4.7276 C.3          1    LIG   0.0000
  21 C21          2.1724    -3.3278     4.8739 C.3          1    LIG   0.0000
  22 C22          2.5289     1.2318     0.4438 C.3          1    LIG   0.0000
  23 C23          1.2918     2.1015     0.2940 C.3          1    LIG   0.0000
  24 N24         -1.5882     1.3777    -2.0277 N.pl3        1    LIG   0.0000
  25 C25         -1.8716    -0.0603    -2.1236 C.3          1    LIG   0.0000
  26 C26         -2.8904    -0.4476    -1.0641 C.3          1    LIG   0.0000
  27 N27         -3.1741    -1.8868    -1.1601 N.am         1    LIG   0.0000
  28 C28         -2.3075    -2.7940    -0.6096 C.2          1    LIG   0.0000
  29 O29         -1.3170    -2.4137    -0.0490 O.2          1    LIG   0.0000
  30 C30         -2.5870    -4.2120    -0.7042 C.2          1    LIG   0.0000
  31 C31         -3.6679    -4.7775    -1.3104 C.2          1    LIG   0.0000
  32 C32         -3.5205    -6.1746    -1.1581 C.2          1    LIG   0.0000
  33 N33         -2.4040    -6.3606    -0.4940 N.2          1    LIG   0.0000
  34 N34         -1.8170    -5.2203    -0.2051 N.pl3        1    LIG   0.0000
  35 C35         -4.2265     1.1446    -3.4586 C.ar         1    LIG   0.0000
  36 C36         -5.2871     1.0011    -4.3466 C.ar         1    LIG   0.0000
  37 H           -0.9568    -5.1117     0.2931 H            1    LIG   0.0000
  38 H           -8.5947     2.4101    -6.4517 H            1    LIG   0.0000
  39 H           -8.0897     2.1412    -4.9222 H            1    LIG   0.0000
  40 H           -7.6071     3.4834    -5.7174 H            1    LIG   0.0000
  41 H           -6.8460     0.7939    -6.4415 H            1    LIG   0.0000
  42 H           -6.3633     2.1360    -7.2367 H            1    LIG   0.0000
  43 H           -4.7102     3.6424    -6.2681 H            1    LIG   0.0000
  44 H           -2.8790     3.9007    -4.7436 H            1    LIG   0.0000
  45 H            0.8401    -0.5710    -0.9908 H            1    LIG   0.0000
  46 H           -0.6674    -0.4909    -0.3682 H            1    LIG   0.0000
  47 H            0.2446    -0.1414     1.8071 H            1    LIG   0.0000
  48 H            0.8344    -1.5321     1.1868 H            1    LIG   0.0000
  49 H            4.1741    -1.7889     3.9874 H            1    LIG   0.0000
  50 H            4.5971    -2.6499     2.6658 H            1    LIG   0.0000
  51 H            2.9866    -4.3100     3.2319 H            1    LIG   0.0000
  52 H            4.0826    -5.1802     5.1585 H            1    LIG   0.0000
  53 H            5.1829    -4.5808     4.1113 H            1    LIG   0.0000
  54 H            4.7599    -3.7199     5.4328 H            1    LIG   0.0000
  55 H            1.8243    -4.1604     5.3049 H            1    LIG   0.0000
  56 H            2.5017    -2.7000     5.5792 H            1    LIG   0.0000
  57 H            1.4390    -2.8900     4.3539 H            1    LIG   0.0000
  58 H            2.8807     0.9938    -0.4615 H            1    LIG   0.0000
  59 H            3.2291     1.7330     0.9522 H            1    LIG   0.0000
  60 H            0.9428     2.3597     1.1948 H            1    LIG   0.0000
  61 H            1.5131     2.9261    -0.2267 H            1    LIG   0.0000
  62 H           -1.0276    -0.5767    -1.9790 H            1    LIG   0.0000
  63 H           -2.2383    -0.2680    -3.0304 H            1    LIG   0.0000
  64 H           -2.5237    -0.2399    -0.1573 H            1    LIG   0.0000
  65 H           -3.7344     0.0688    -1.2087 H            1    LIG   0.0000
  66 H           -3.9995    -2.2037    -1.6272 H            1    LIG   0.0000
  67 H           -4.4160    -4.2997    -1.7709 H            1    LIG   0.0000
  68 H           -4.1440    -6.8821    -1.4907 H            1    LIG   0.0000
  69 H           -4.0957     0.4874    -2.7164 H            1    LIG   0.0000
  70 H           -5.9240     0.2368    -4.2453 H            1    LIG   0.0000
@<TRIPOS>BOND
   1        1        2 1
   2        2        3 1
   3        3        4 ar
   4        4        5 ar
   5        5        6 ar
   6        6        7 1
   7        7        8 2
   8        8        9 1
   9        9       10 2
  10       10       11 1
  11       11       12 1
  12       12       13 1
  13       13       14 1
  14       14       15 am
  15       15       16 2
  16       15       17 1
  17       17       18 1
  18       18       19 1
  19       19       20 1
  20       19       21 1
  21       14       22 1
  22       22       23 1
  23       23       11 1
  24       10       24 1
  25       24        7 1
  26       24       25 1
  27       25       26 1
  28       26       27 1
  29       27       28 am
  30       28       29 2
  31       28       30 1
  32       30       31 2
  33       31       32 1
  34       32       33 2
  35       33       34 1
  36       34       30 1
  37        6       35 ar
  38       35       36 ar
  39       36        3 ar
  40       34       37 1
  41        1       38 1
  42        1       39 1
  43        1       40 1
  44        2       41 1
  45        2       42 1
  46        4       43 1
  47        5       44 1
  48       12       45 1
  49       12       46 1
  50       13       47 1
  51       13       48 1
  52       18       49 1
  53       18       50 1
  54       19       51 1
  55       20       52 1
  56       20       53 1
  57       20       54 1
  58       21       55 1
  59       21       56 1
  60       21       57 1
  61       22       58 1
  62       22       59 1
  63       23       60 1
  64       23       61 1
  65       25       62 1
  66       25       63 1
  67       26       64 1
  68       26       65 1
  69       27       66 1
  70       31       67 1
  71       32       68 1
  72       35       69 1
  73       36       70 1

@<TRIPOS>MOLECULE

  70   73
SMALL
USER_CHARGES
@<TRIPOS>ATOM
   1 C1          -7.8317     2.5137    -5.8137 C.3          1    LIG   0.0000
   2 C2          -6.6213     1.7635    -6.3452 C.3          1    LIG   0.0000
   3 C3          -5.4621     1.9210    -5.3759 C.ar         1    LIG   0.0000
   4 C4          -4.5799     2.9856    -5.5254 C.ar         1    LIG   0.0000
   5 C5          -3.5163     3.1368    -4.6418 C.ar         1    LIG   0.0000
   6 C6          -3.3494     2.2133    -3.6151 C.ar         1    LIG   0.0000
   7 C7          -2.2426     2.3668    -2.6914 C.2          1    LIG   0.0000
   8 N8          -1.6833     3.4903    -2.3255 N.2          1    LIG   0.0000
   9 N9          -0.6985     3.2502    -1.4781 N.2          1    LIG   0.0000
  10 C10         -0.6183     1.9579    -1.2678 C.2          1    LIG   0.0000
  11 N11          0.2887     1.3049    -0.4259 N.pl3        1    LIG   0.0000
  12 C12          0.2714    -0.1581    -0.2794 C.3          1    LIG   0.0000
  13 C13          0.8160    -0.5372     1.0881 C.3          1    LIG   0.0000
  14 N14          2.1792     0.0034     1.1723 N.am         1    LIG   0.0000
  15 C15          3.1329    -0.6870     1.9273 C.2          1    LIG   0.0000
  16 O16          3.9136    -0.0804     2.6074 O.2          1    LIG   0.0000
  17 O17          3.1739    -1.9959     1.8921 O.3          1    LIG   0.0000
  18 C18          4.1790    -2.5979     2.6945 C.3          1    LIG   0.0000
  19 C19          5.5136    -2.5301     1.9702 C.3          1    LIG   0.0000
  20 C20          6.4595    -3.5675     2.5528 C.3          1    LIG   0.0000
  21 C21          5.3024    -2.8108     0.4913 C.3          1    LIG   0.0000
  22 C22          2.5289     1.2318     0.4438 C.3          1    LIG   0.0000
  23 C23          1.2918     2.1015     0.2940 C.3          1    LIG   0.0000
  24 N24         -1.5882     1.3777    -2.0277 N.pl3        1    LIG   0.0000
  25 C25         -1.8716    -0.0603    -2.1236 C.3          1    LIG   0.0000
  26 C26         -2.8904    -0.4476    -1.0641 C.3          1    LIG   0.0000
  27 N27         -3.1741    -1.8868    -1.1601 N.am         1    LIG   0.0000
  28 C28         -2.3075    -2.7940    -0.6096 C.2          1    LIG   0.0000
  29 O29         -1.3170    -2.4137    -0.0490 O.2          1    LIG   0.0000
  30 C30         -2.5870    -4.2120    -0.7042 C.2          1    LIG   0.0000
  31 C31         -3.6679    -4.7775    -1.3104 C.2          1    LIG   0.0000
  32 C32         -3.5205    -6.1746    -1.1581 C.2          1    LIG   0.0000
  33 N33         -2.4040    -6.3606    -0.4940 N.2          1    LIG   0.0000
  34 N34         -1.8170    -5.2203    -0.2051 N.pl3        1    LIG   0.0000
  35 C35         -4.2265     1.1446    -3.4586 C.ar         1    LIG   0.0000
  36 C36         -5.2871     1.0011    -4.3466 C.ar         1    LIG   0.0000
  37 H           -0.9568    -5.1117     0.2931 H            1    LIG   0.0000
  38 H           -8.5947     2.4101    -6.4517 H            1    LIG   0.0000
  39 H           -8.0897     2.1412    -4.9222 H            1    LIG   0.0000
  40 H           -7.6071     3.4834    -5.7174 H            1    LIG   0.0000
  41 H           -6.8460     0.7939    -6.4415 H            1    LIG   0.0000
  42 H           -6.3633     2.1360    -7.2367 H            1    LIG   0.0000
  43 H           -4.7102     3.6424    -6.2681 H            1    LIG   0.0000
  44 H           -2.8790     3.9007    -4.7436 H            1    LIG   0.0000
  45 H            0.8401    -0.5710    -0.9908 H            1    LIG   0.0000
  46 H           -0.6674    -0.4909    -0.3682 H            1    LIG   0.0000
  47 H            0.2446    -0.1414     1.8071 H            1    LIG   0.0000
  48 H            0.8344    -1.5321     1.1868 H            1    LIG   0.0000
  49 H            3.9407    -3.5539     2.8655 H            1    LIG   0.0000
  50 H            4.2470    -2.1104     3.5649 H            1    LIG   0.0000
  51 H            5.9083    -1.6183     2.0833 H            1    LIG   0.0000
  52 H            7.3375    -3.5229     2.0763 H            1    LIG   0.0000
  53 H            6.5985    -3.3828     3.5257 H            1    LIG   0.0000
  54 H            6.0648    -4.4793     2.4396 H            1    LIG   0.0000
  55 H            6.1804    -2.7662     0.0149 H            1    LIG   0.0000
  56 H            4.9077    -3.7226     0.3782 H            1    LIG   0.0000
  57 H            4.6801    -2.1283     0.1081 H            1    LIG   0.0000
  58 H            2.8807     0.9938    -0.4615 H            1    LIG   0.0000
  59 H            3.2291     1.7330     0.9522 H            1    LIG   0.0000
  60 H            0.9428     2.3597     1.1948 H            1    LIG   0.0000
  61 H            1.5131     2.9261    -0.2267 H            1    LIG   0.0000
  62 H           -1.0276    -0.5767    -1.9790 H            1    LIG   0.0000
  63 H           -2.2383    -0.2680    -3.0304 H            1    LIG   0.0000
  64 H           -2.5237    -0.2399    -0.1573 H            1    LIG   0.0000
  65 H           -3.7344     0.0688    -1.2087 H            1    LIG   0.0000
  66 H           -3.9995    -2.2037    -1.6272 H            1    LIG   0.0000
  67 H           -4.4160    -4.2997    -1.7709 H            1    LIG   0.0000
  68 H           -4.1440    -6.8821    -1.4907 H            1    LIG   0.0000
  69 H           -4.0957     0.4874    -2.7164 H            1    LIG   0.0000
  70 H           -5.9240     0.2368    -4.2453 H            1    LIG   0.0000
@<TRIPOS>BOND
   1        1        2 1
   2        2        3 1
   3        3        4 ar
   4        4        5 ar
   5        5        6 ar
   6        6        7 1
   7        7        8 2
   8        8        9 1
   9        9       10 2
  10       10       11 1
  11       11       12 1
  12       12       13 1
  13       13       14 1
  14       14       15 am
  15       15       16 2
  16       15       17 1
  17       17       18 1
  18       18       19 1
  19       19       20 1
  20       19       21 1
  21       14       22 1
  22       22       23 1
  23       23       11 1
  24       10       24 1
  25       24        7 1
  26       24       25 1
  27       25       26 1
  28       26       27 1
  29       27       28 am
  30       28       29 2
  31       28       30 1
  32       30       31 2
  33       31       32 1
  34       32       33 2
  35       33       34 1
  36       34       30 1
  37        6       35 ar
  38       35       36 ar
  39       36        3 ar
  40       34       37 1
  41        1       38 1
  42        1       39 1
  43        1       40 1
  44        2       41 1
  45        2       42 1
  46        4       43 1
  47        5       44 1
  48       12       45 1
  49       12       46 1
  50       13       47 1
  51       13       48 1
  52       18       49 1
  53       18       50 1
  54       19       51 1
  55       20       52 1
  56       20       53 1
  57       20       54 1
  58       21       55 1
  59       21       56 1
  60       21       57 1
  61       22       58 1
  62       22       59 1
  63       23       60 1
  64       23       61 1
  65       25       62 1
  66       25       63 1
  67       26       64 1
  68       26       65 1
  69       27       66 1
  70       31       67 1
  71       32       68 1
  72       35       69 1
  73       36       70 1

@<TRIPOS>MOLECULE

  70   73
SMALL
USER_CHARGES
@<TRIPOS>ATOM
   1 C1          -7.4312     0.5289    -5.9639 C.3          1    LIG   0.0000
   2 C2          -6.6232     1.7595    -6.3423 C.3          1    LIG   0.0000
   3 C3          -5.4610     1.9188    -5.3768 C.ar         1    LIG   0.0000
   4 C4          -5.6277     2.6682    -4.2172 C.ar         1    LIG   0.0000
   5 C5          -4.5686     2.8185    -3.3281 C.ar         1    LIG   0.0000
   6 C6          -3.3494     2.2133    -3.6151 C.ar         1    LIG   0.0000
   7 C7          -2.2426     2.3668    -2.6914 C.2          1    LIG   0.0000
   8 N8          -1.6833     3.4903    -2.3255 N.2          1    LIG   0.0000
   9 N9          -0.6985     3.2502    -1.4781 N.2          1    LIG   0.0000
  10 C10         -0.6183     1.9579    -1.2678 C.2          1    LIG   0.0000
  11 N11          0.2887     1.3049    -0.4259 N.pl3        1    LIG   0.0000
  12 C12          0.2714    -0.1581    -0.2794 C.3          1    LIG   0.0000
  13 C13          0.8160    -0.5372     1.0881 C.3          1    LIG   0.0000
  14 N14          2.1792     0.0034     1.1723 N.am         1    LIG   0.0000
  15 C15          3.1329    -0.6870     1.9273 C.2          1    LIG   0.0000
  16 O16          4.2529    -0.2644     2.0105 O.2          1    LIG   0.0000
  17 O17          2.8034    -1.7950     2.5437 O.3          1    LIG   0.0000
  18 C18          3.8449    -2.4167     3.2821 C.3          1    LIG   0.0000
  19 C19          3.5596    -2.2855     4.7693 C.3          1    LIG   0.0000
  20 C20          4.6744    -2.9510     5.5597 C.3          1    LIG   0.0000
  21 C21          3.4826    -0.8141     5.1426 C.3          1    LIG   0.0000
  22 C22          2.5289     1.2318     0.4438 C.3          1    LIG   0.0000
  23 C23          1.2918     2.1015     0.2940 C.3          1    LIG   0.0000
  24 N24         -1.5882     1.3777    -2.0277 N.pl3        1    LIG   0.0000
  25 C25         -1.8716    -0.0603    -2.1236 C.3          1    LIG   0.0000
  26 C26         -2.8904    -0.4476    -1.0641 C.3          1    LIG   0.0000
  27 N27         -3.1741    -1.8868    -1.1601 N.am         1    LIG   0.0000
  28 C28         -2.3075    -2.7940    -0.6096 C.2          1    LIG   0.0000
  29 O29         -1.3170    -2.4137    -0.0490 O.2          1    LIG   0.0000
  30 C30         -2.5870    -4.2120    -0.7042 C.2          1    LIG   0.0000
  31 C31         -3.6679    -4.7775    -1.3104 C.2          1    LIG   0.0000
  32 C32         -3.5205    -6.1746    -1.1581 C.2          1    LIG   0.0000
  33 N33         -2.4040    -6.3606    -0.4940 N.2          1    LIG   0.0000
  34 N34         -1.8170    -5.2203    -0.2051 N.pl3        1    LIG   0.0000
  35 C35         -3.1735     1.4628    -4.7733 C.ar         1    LIG   0.0000
  36 C36         -4.2376     1.3177    -5.6567 C.ar         1    LIG   0.0000
  37 H           -0.9568    -5.1117     0.2931 H            1    LIG   0.0000
  38 H           -8.1962     0.4241    -6.5993 H            1    LIG   0.0000
  39 H           -6.8464    -0.2809    -6.0097 H            1    LIG   0.0000
  40 H           -7.7827     0.6341    -5.0336 H            1    LIG   0.0000
  41 H           -6.2717     1.6544    -7.2726 H            1    LIG   0.0000
  42 H           -7.2081     2.5694    -6.2965 H            1    LIG   0.0000
  43 H           -6.5090     3.0989    -4.0225 H            1    LIG   0.0000
  44 H           -4.6823     3.3554    -2.4921 H            1    LIG   0.0000
  45 H            0.8401    -0.5710    -0.9908 H            1    LIG   0.0000
  46 H           -0.6674    -0.4909    -0.3682 H            1    LIG   0.0000
  47 H            0.2446    -0.1414     1.8071 H            1    LIG   0.0000
  48 H            0.8344    -1.5321     1.1868 H            1    LIG   0.0000
  49 H            4.7153    -1.9728     3.0692 H            1    LIG   0.0000
  50 H            3.8956    -3.3848     3.0365 H            1    LIG   0.0000
  51 H            2.6892    -2.7294     4.9822 H            1    LIG   0.0000
  52 H            4.4867    -2.8647     6.5381 H            1    LIG   0.0000
  53 H            4.7251    -3.9191     5.3141 H            1    LIG   0.0000
  54 H            5.5448    -2.5071     5.3468 H            1    LIG   0.0000
  55 H            3.2949    -0.7277     6.1210 H            1    LIG   0.0000
  56 H            4.3530    -0.3702     4.9297 H            1    LIG   0.0000
  57 H            2.7492    -0.3762     4.6226 H            1    LIG   0.0000
  58 H            2.8807     0.9938    -0.4615 H            1    LIG   0.0000
  59 H            3.2291     1.7330     0.9522 H            1    LIG   0.0000
  60 H            0.9428     2.3597     1.1948 H            1    LIG   0.0000
  61 H            1.5131     2.9261    -0.2267 H            1    LIG   0.0000
  62 H           -1.0276    -0.5767    -1.9790 H            1    LIG   0.0000
  63 H           -2.2383    -0.2680    -3.0304 H            1    LIG   0.0000
  64 H           -2.5237    -0.2399    -0.1573 H            1    LIG   0.0000
  65 H           -3.7344     0.0688    -1.2087 H            1    LIG   0.0000
  66 H           -3.9995    -2.2037    -1.6272 H            1    LIG   0.0000
  67 H           -4.4160    -4.2997    -1.7709 H            1    LIG   0.0000
  68 H           -4.1440    -6.8821    -1.4907 H            1    LIG   0.0000
  69 H           -2.2920     1.0327    -4.9683 H            1    LIG   0.0000
  70 H           -4.1237     0.7815    -6.4930 H            1    LIG   0.0000
@<TRIPOS>BOND
   1        1        2 1
   2        2        3 1
   3        3        4 ar
   4        4        5 ar
   5        5        6 ar
   6        6        7 1
   7        7        8 2
   8        8        9 1
   9        9       10 2
  10       10       11 1
  11       11       12 1
  12       12       13 1
  13       13       14 1
  14       14       15 am
  15       15       16 2
  16       15       17 1
  17       17       18 1
  18       18       19 1
  19       19       20 1
  20       19       21 1
  21       14       22 1
  22       22       23 1
  23       23       11 1
  24       10       24 1
  25       24        7 1
  26       24       25 1
  27       25       26 1
  28       26       27 1
  29       27       28 am
  30       28       29 2
  31       28       30 1
  32       30       31 2
  33       31       32 1
  34       32       33 2
  35       33       34 1
  36       34       30 1
  37        6       35 ar
  38       35       36 ar
  39       36        3 ar
  40       34       37 1
  41        1       38 1
  42        1       39 1
  43        1       40 1
  44        2       41 1
  45        2       42 1
  46        4       43 1
  47        5       44 1
  48       12       45 1
  49       12       46 1
  50       13       47 1
  51       13       48 1
  52       18       49 1
  53       18       50 1
  54       19       51 1
  55       20       52 1
  56       20       53 1
  57       20       54 1
  58       21       55 1
  59       21       56 1
  60       21       57 1
  61       22       58 1
  62       22       59 1
  63       23       60 1
  64       23       61 1
  65       25       62 1
  66       25       63 1
  67       26       64 1
  68       26       65 1
  69       27       66 1
  70       31       67 1
  71       32       68 1
  72       35       69 1
  73       36       70 1

@<TRIPOS>MOLECULE

  70   73
SMALL
USER_CHARGES
@<TRIPOS>ATOM
   1 C1          -6.5903     2.8838    -7.3647 C.3          1    LIG   0.0000
   2 C2          -6.6232     1.7595    -6.3423 C.3          1    LIG   0.0000
   3 C3          -5.4610     1.9188    -5.3768 C.ar         1    LIG   0.0000
   4 C4          -5.6277     2.6682    -4.2172 C.ar         1    LIG   0.0000
   5 C5          -4.5686     2.8185    -3.3281 C.ar         1    LIG   0.0000
   6 C6          -3.3494     2.2133    -3.6151 C.ar         1    LIG   0.0000
   7 C7          -2.2426     2.3668    -2.6914 C.2          1    LIG   0.0000
   8 N8          -1.6833     3.4903    -2.3255 N.2          1    LIG   0.0000
   9 N9          -0.6985     3.2502    -1.4781 N.2          1    LIG   0.0000
  10 C10         -0.6183     1.9579    -1.2678 C.2          1    LIG   0.0000
  11 N11          0.2887     1.3049    -0.4259 N.pl3        1    LIG   0.0000
  12 C12          0.2714    -0.1581    -0.2794 C.3          1    LIG   0.0000
  13 C13          0.8160    -0.5372     1.0881 C.3          1    LIG   0.0000
  14 N14          2.1792     0.0034     1.1723 N.am         1    LIG   0.0000
  15 C15          3.1329    -0.6870     1.9273 C.2          1    LIG   0.0000
  16 O16          4.2529    -0.2644     2.0105 O.2          1    LIG   0.0000
  17 O17          2.8034    -1.7950     2.5437 O.3          1    LIG   0.0000
  18 C18          3.8863    -2.6415     2.9002 C.3          1    LIG   0.0000
  19 C19          4.3260    -3.4409     1.6844 C.3          1    LIG   0.0000
  20 C20          5.4852    -4.3471     2.0659 C.3          1    LIG   0.0000
  21 C21          3.1648    -4.2861     1.1867 C.3          1    LIG   0.0000
  22 C22          2.5289     1.2318     0.4438 C.3          1    LIG   0.0000
  23 C23          1.2918     2.1015     0.2940 C.3          1    LIG   0.0000
  24 N24         -1.5882     1.3777    -2.0277 N.pl3        1    LIG   0.0000
  25 C25         -1.8716    -0.0603    -2.1236 C.3          1    LIG   0.0000
  26 C26         -2.8904    -0.4476    -1.0641 C.3          1    LIG   0.0000
  27 N27         -3.1741    -1.8868    -1.1601 N.am         1    LIG   0.0000
  28 C28         -2.3075    -2.7940    -0.6096 C.2          1    LIG   0.0000
  29 O29         -1.3170    -2.4137    -0.0490 O.2          1    LIG   0.0000
  30 C30         -2.5870    -4.2120    -0.7042 C.2          1    LIG   0.0000
  31 C31         -3.6679    -4.7775    -1.3104 C.2          1    LIG   0.0000
  32 C32         -3.5205    -6.1746    -1.1581 C.2          1    LIG   0.0000
  33 N33         -2.4040    -6.3606    -0.4940 N.2          1    LIG   0.0000
  34 N34         -1.8170    -5.2203    -0.2051 N.pl3        1    LIG   0.0000
  35 C35         -3.1735     1.4628    -4.7733 C.ar         1    LIG   0.0000
  36 C36         -4.2376     1.3177    -5.6567 C.ar         1    LIG   0.0000
  37 H           -0.9568    -5.1117     0.2931 H            1    LIG   0.0000
  38 H           -7.3553     2.7789    -8.0002 H            1    LIG   0.0000
  39 H           -6.6652     3.7636    -6.8952 H            1    LIG   0.0000
  40 H           -5.7289     2.8486    -7.8713 H            1    LIG   0.0000
  41 H           -7.4847     1.7947    -5.8357 H            1    LIG   0.0000
  42 H           -6.5484     0.8797    -6.8118 H            1    LIG   0.0000
  43 H           -6.5090     3.0989    -4.0225 H            1    LIG   0.0000
  44 H           -4.6823     3.3554    -2.4921 H            1    LIG   0.0000
  45 H            0.8401    -0.5710    -0.9908 H            1    LIG   0.0000
  46 H           -0.6674    -0.4909    -0.3682 H            1    LIG   0.0000
  47 H            0.2446    -0.1414     1.8071 H            1    LIG   0.0000
  48 H            0.8344    -1.5321     1.1868 H            1    LIG   0.0000
  49 H            3.5958    -3.2678     3.6236 H            1    LIG   0.0000
  50 H            4.6503    -2.0855     3.2276 H            1    LIG   0.0000
  51 H            4.6166    -2.8147     0.9610 H            1    LIG   0.0000
  52 H            5.7744    -4.8730     1.2661 H            1    LIG   0.0000
  53 H            6.2492    -3.7910     2.3934 H            1    LIG   0.0000
  54 H            5.1946    -4.9733     2.7894 H            1    LIG   0.0000
  55 H            3.4540    -4.8120     0.3869 H            1    LIG   0.0000
  56 H            2.8742    -4.9123     1.9102 H            1    LIG   0.0000
  57 H            2.4022    -3.6899     0.9357 H            1    LIG   0.0000
  58 H            2.8807     0.9938    -0.4615 H            1    LIG   0.0000
  59 H            3.2291     1.7330     0.9522 H            1    LIG   0.0000
  60 H            0.9428     2.3597     1.1948 H            1    LIG   0.0000
  61 H            1.5131     2.9261    -0.2267 H            1    LIG   0.0000
  62 H           -1.0276    -0.5767    -1.9790 H            1    LIG   0.0000
  63 H           -2.2383    -0.2680    -3.0304 H            1    LIG   0.0000
  64 H           -2.5237    -0.2399    -0.1573 H            1    LIG   0.0000
  65 H           -3.7344     0.0688    -1.2087 H            1    LIG   0.0000
  66 H           -3.9995    -2.2037    -1.6272 H            1    LIG   0.0000
  67 H           -4.4160    -4.2997    -1.7709 H            1    LIG   0.0000
  68 H           -4.1440    -6.8821    -1.4907 H            1    LIG   0.0000
  69 H           -2.2920     1.0327    -4.9683 H            1    LIG   0.0000
  70 H           -4.1237     0.7815    -6.4930 H            1    LIG   0.0000
@<TRIPOS>BOND
   1        1        2 1
   2        2        3 1
   3        3        4 ar
   4        4        5 ar
   5        5        6 ar
   6        6        7 1
   7        7        8 2
   8        8        9 1
   9        9       10 2
  10       10       11 1
  11       11       12 1
  12       12       13 1
  13       13       14 1
  14       14       15 am
  15       15       16 2
  16       15       17 1
  17       17       18 1
  18       18       19 1
  19       19       20 1
  20       19       21 1
  21       14       22 1
  22       22       23 1
  23       23       11 1
  24       10       24 1
  25       24        7 1
  26       24       25 1
  27       25       26 1
  28       26       27 1
  29       27       28 am
  30       28       29 2
  31       28       30 1
  32       30       31 2
  33       31       32 1
  34       32       33 2
  35       33       34 1
  36       34       30 1
  37        6       35 ar
  38       35       36 ar
  39       36        3 ar
  40       34       37 1
  41        1       38 1
  42        1       39 1
  43        1       40 1
  44        2       41 1
  45        2       42 1
  46        4       43 1
  47        5       44 1
  48       12       45 1
  49       12       46 1
  50       13       47 1
  51       13       48 1
  52       18       49 1
  53       18       50 1
  54       19       51 1
  55       20       52 1
  56       20       53 1
  57       20       54 1
  58       21       55 1
  59       21       56 1
  60       21       57 1
  61       22       58 1
  62       22       59 1
  63       23       60 1
  64       23       61 1
  65       25       62 1
  66       25       63 1
  67       26       64 1
  68       26       65 1
  69       27       66 1
  70       31       67 1
  71       32       68 1
  72       35       69 1
  73       36       70 1

@<TRIPOS>MOLECULE

  70   73
SMALL
USER_CHARGES
@<TRIPOS>ATOM
   1 C1          -7.4312     0.5289    -5.9639 C.3          1    LIG   0.0000
   2 C2          -6.6232     1.7595    -6.3423 C.3          1    LIG   0.0000
   3 C3          -5.4610     1.9188    -5.3768 C.ar         1    LIG   0.0000
   4 C4          -5.6277     2.6682    -4.2172 C.ar         1    LIG   0.0000
   5 C5          -4.5686     2.8185    -3.3281 C.ar         1    LIG   0.0000
   6 C6          -3.3494     2.2133    -3.6151 C.ar         1    LIG   0.0000
   7 C7          -2.2426     2.3668    -2.6914 C.2          1    LIG   0.0000
   8 N8          -1.6833     3.4903    -2.3255 N.2          1    LIG   0.0000
   9 N9          -0.6985     3.2502    -1.4781 N.2          1    LIG   0.0000
  10 C10         -0.6183     1.9579    -1.2678 C.2          1    LIG   0.0000
  11 N11          0.2887     1.3049    -0.4259 N.pl3        1    LIG   0.0000
  12 C12          0.2714    -0.1581    -0.2794 C.3          1    LIG   0.0000
  13 C13          0.8160    -0.5372     1.0881 C.3          1    LIG   0.0000
  14 N14          2.1792     0.0034     1.1723 N.am         1    LIG   0.0000
  15 C15          3.1329    -0.6870     1.9273 C.2          1    LIG   0.0000
  16 O16          2.8311    -1.7020     2.4920 O.2          1    LIG   0.0000
  17 O17          4.3556    -0.2257     2.0182 O.3          1    LIG   0.0000
  18 C18          5.1119    -0.7106     3.1178 C.3          1    LIG   0.0000
  19 C19          5.3219     0.4108     4.1222 C.3          1    LIG   0.0000
  20 C20          6.1314    -0.1083     5.2993 C.3          1    LIG   0.0000
  21 C21          6.0712     1.5535     3.4565 C.3          1    LIG   0.0000
  22 C22          2.5289     1.2318     0.4438 C.3          1    LIG   0.0000
  23 C23          1.2918     2.1015     0.2940 C.3          1    LIG   0.0000
  24 N24         -1.5882     1.3777    -2.0277 N.pl3        1    LIG   0.0000
  25 C25         -1.8716    -0.0603    -2.1236 C.3          1    LIG   0.0000
  26 C26         -2.8904    -0.4476    -1.0641 C.3          1    LIG   0.0000
  27 N27         -3.1741    -1.8868    -1.1601 N.am         1    LIG   0.0000
  28 C28         -2.3075    -2.7940    -0.6096 C.2          1    LIG   0.0000
  29 O29         -1.3170    -2.4137    -0.0490 O.2          1    LIG   0.0000
  30 C30         -2.5870    -4.2120    -0.7042 C.2          1    LIG   0.0000
  31 C31         -3.4217    -4.8066    -1.6016 C.2          1    LIG   0.0000
  32 C32         -3.3808    -6.1912    -1.3221 C.2          1    LIG   0.0000
  33 N33         -2.5573    -6.3426    -0.3116 N.2          1    LIG   0.0000
  34 N34         -2.0624    -5.1914     0.0860 N.pl3        1    LIG   0.0000
  35 C35         -3.1735     1.4628    -4.7733 C.ar         1    LIG   0.0000
  36 C36         -4.2376     1.3177    -5.6567 C.ar         1    LIG   0.0000
  37 H           -1.4150    -5.0576     0.8363 H            1    LIG   0.0000
  38 H           -8.1962     0.4241    -6.5993 H            1    LIG   0.0000
  39 H           -6.8464    -0.2809    -6.0097 H            1    LIG   0.0000
  40 H           -7.7827     0.6341    -5.0336 H            1    LIG   0.0000
  41 H           -6.2717     1.6544    -7.2726 H            1    LIG   0.0000
  42 H           -7.2081     2.5694    -6.2965 H            1    LIG   0.0000
  43 H           -6.5090     3.0989    -4.0225 H            1    LIG   0.0000
  44 H           -4.6823     3.3554    -2.4921 H            1    LIG   0.0000
  45 H            0.8401    -0.5710    -0.9908 H            1    LIG   0.0000
  46 H           -0.6674    -0.4909    -0.3682 H            1    LIG   0.0000
  47 H            0.2446    -0.1414     1.8071 H            1    LIG   0.0000
  48 H            0.8344    -1.5321     1.1868 H            1    LIG   0.0000
  49 H            5.9993    -1.0381     2.7935 H            1    LIG   0.0000
  50 H            4.6189    -1.4624     3.5558 H            1    LIG   0.0000
  51 H            4.4344     0.7383     4.4465 H            1    LIG   0.0000
  52 H            6.2695     0.6294     5.9601 H            1    LIG   0.0000
  53 H            5.6384    -0.8601     5.7373 H            1    LIG   0.0000
  54 H            7.0188    -0.4358     4.9750 H            1    LIG   0.0000
  55 H            6.2093     2.2912     4.1173 H            1    LIG   0.0000
  56 H            6.9586     1.2260     3.1322 H            1    LIG   0.0000
  57 H            5.5386     1.8950     2.6821 H            1    LIG   0.0000
  58 H            2.8807     0.9938    -0.4615 H            1    LIG   0.0000
  59 H            3.2291     1.7330     0.9522 H            1    LIG   0.0000
  60 H            0.9428     2.3597     1.1948 H            1    LIG   0.0000
  61 H            1.5131     2.9261    -0.2267 H            1    LIG   0.0000
  62 H           -1.0276    -0.5767    -1.9790 H            1    LIG   0.0000
  63 H           -2.2383    -0.2680    -3.0304 H            1    LIG   0.0000
  64 H           -2.5237    -0.2399    -0.1573 H            1    LIG   0.0000
  65 H           -3.7344     0.0688    -1.2087 H            1    LIG   0.0000
  66 H           -3.9995    -2.2037    -1.6272 H            1    LIG   0.0000
  67 H           -3.9563    -4.3540    -2.3152 H            1    LIG   0.0000
  68 H           -3.8809    -6.9134    -1.8001 H            1    LIG   0.0000
  69 H           -2.2920     1.0327    -4.9683 H            1    LIG   0.0000
  70 H           -4.1237     0.7815    -6.4930 H            1    LIG   0.0000
@<TRIPOS>BOND
   1        1        2 1
   2        2        3 1
   3        3        4 ar
   4        4        5 ar
   5        5        6 ar
   6        6        7 1
   7        7        8 2
   8        8        9 1
   9        9       10 2
  10       10       11 1
  11       11       12 1
  12       12       13 1
  13       13       14 1
  14       14       15 am
  15       15       16 2
  16       15       17 1
  17       17       18 1
  18       18       19 1
  19       19       20 1
  20       19       21 1
  21       14       22 1
  22       22       23 1
  23       23       11 1
  24       10       24 1
  25       24        7 1
  26       24       25 1
  27       25       26 1
  28       26       27 1
  29       27       28 am
  30       28       29 2
  31       28       30 1
  32       30       31 2
  33       31       32 1
  34       32       33 2
  35       33       34 1
  36       34       30 1
  37        6       35 ar
  38       35       36 ar
  39       36        3 ar
  40       34       37 1
  41        1       38 1
  42        1       39 1
  43        1       40 1
  44        2       41 1
  45        2       42 1
  46        4       43 1
  47        5       44 1
  48       12       45 1
  49       12       46 1
  50       13       47 1
  51       13       48 1
  52       18       49 1
  53       18       50 1
  54       19       51 1
  55       20       52 1
  56       20       53 1
  57       20       54 1
  58       21       55 1
  59       21       56 1
  60       21       57 1
  61       22       58 1
  62       22       59 1
  63       23       60 1
  64       23       61 1
  65       25       62 1
  66       25       63 1
  67       26       64 1
  68       26       65 1
  69       27       66 1
  70       31       67 1
  71       32       68 1
  72       35       69 1
  73       36       70 1

@<TRIPOS>MOLECULE

  70   73
SMALL
USER_CHARGES
@<TRIPOS>ATOM
   1 C1          -7.7858     1.0882    -5.6294 C.3          1    LIG   0.0000
   2 C2          -6.6232     1.7595    -6.3423 C.3          1    LIG   0.0000
   3 C3          -5.4610     1.9188    -5.3768 C.ar         1    LIG   0.0000
   4 C4          -5.6277     2.6682    -4.2172 C.ar         1    LIG   0.0000
   5 C5          -4.5686     2.8185    -3.3281 C.ar         1    LIG   0.0000
   6 C6          -3.3494     2.2133    -3.6151 C.ar         1    LIG   0.0000
   7 C7          -2.2426     2.3668    -2.6914 C.2          1    LIG   0.0000
   8 N8          -1.6833     3.4903    -2.3255 N.2          1    LIG   0.0000
   9 N9          -0.6985     3.2502    -1.4781 N.2          1    LIG   0.0000
  10 C10         -0.6183     1.9579    -1.2678 C.2          1    LIG   0.0000
  11 N11          0.2887     1.3049    -0.4259 N.pl3        1    LIG   0.0000
  12 C12          0.2714    -0.1581    -0.2794 C.3          1    LIG   0.0000
  13 C13          0.8160    -0.5372     1.0881 C.3          1    LIG   0.0000
  14 N14          2.1792     0.0034     1.1723 N.am         1    LIG   0.0000
  15 C15          3.1329    -0.6870     1.9273 C.2          1    LIG   0.0000
  16 O16          2.8311    -1.7020     2.4920 O.2          1    LIG   0.0000
  17 O17          4.3556    -0.2257     2.0182 O.3          1    LIG   0.0000
  18 C18          5.2446    -1.0015     2.8082 C.3          1    LIG   0.0000
  19 C19          6.2712    -1.6693     1.9078 C.3          1    LIG   0.0000
  20 C20          7.2228    -2.4998     2.7534 C.3          1    LIG   0.0000
  21 C21          5.5608    -2.5708     0.9112 C.3          1    LIG   0.0000
  22 C22          2.5289     1.2318     0.4438 C.3          1    LIG   0.0000
  23 C23          1.2918     2.1015     0.2940 C.3          1    LIG   0.0000
  24 N24         -1.5882     1.3777    -2.0277 N.pl3        1    LIG   0.0000
  25 C25         -1.8716    -0.0603    -2.1236 C.3          1    LIG   0.0000
  26 C26         -2.8904    -0.4476    -1.0641 C.3          1    LIG   0.0000
  27 N27         -3.1741    -1.8868    -1.1601 N.am         1    LIG   0.0000
  28 C28         -2.3075    -2.7940    -0.6096 C.2          1    LIG   0.0000
  29 O29         -1.3170    -2.4137    -0.0490 O.2          1    LIG   0.0000
  30 C30         -2.5870    -4.2120    -0.7042 C.2          1    LIG   0.0000
  31 C31         -3.4217    -4.8066    -1.6016 C.2          1    LIG   0.0000
  32 C32         -3.3808    -6.1912    -1.3221 C.2          1    LIG   0.0000
  33 N33         -2.5573    -6.3426    -0.3116 N.2          1    LIG   0.0000
  34 N34         -2.0624    -5.1914     0.0860 N.pl3        1    LIG   0.0000
  35 C35         -3.1735     1.4628    -4.7733 C.ar         1    LIG   0.0000
  36 C36         -4.2376     1.3177    -5.6567 C.ar         1    LIG   0.0000
  37 H           -1.4150    -5.0576     0.8363 H            1    LIG   0.0000
  38 H           -8.5507     0.9833    -6.2649 H            1    LIG   0.0000
  39 H           -7.5000     0.1882    -5.3003 H            1    LIG   0.0000
  40 H           -8.0714     1.6514    -4.8540 H            1    LIG   0.0000
  41 H           -6.3376     1.1963    -7.1177 H            1    LIG   0.0000
  42 H           -6.9089     2.6595    -6.6714 H            1    LIG   0.0000
  43 H           -6.5090     3.0989    -4.0225 H            1    LIG   0.0000
  44 H           -4.6823     3.3554    -2.4921 H            1    LIG   0.0000
  45 H            0.8401    -0.5710    -0.9908 H            1    LIG   0.0000
  46 H           -0.6674    -0.4909    -0.3682 H            1    LIG   0.0000
  47 H            0.2446    -0.1414     1.8071 H            1    LIG   0.0000
  48 H            0.8344    -1.5321     1.1868 H            1    LIG   0.0000
  49 H            4.7280    -1.7016     3.3012 H            1    LIG   0.0000
  50 H            5.7120    -0.4085     3.4638 H            1    LIG   0.0000
  51 H            6.7878    -0.9693     1.4148 H            1    LIG   0.0000
  52 H            7.8981    -2.9392     2.1611 H            1    LIG   0.0000
  53 H            7.6901    -1.9068     3.4091 H            1    LIG   0.0000
  54 H            6.7062    -3.1999     3.2464 H            1    LIG   0.0000
  55 H            6.2362    -3.0102     0.3188 H            1    LIG   0.0000
  56 H            5.0442    -3.2708     1.4042 H            1    LIG   0.0000
  57 H            4.9347    -2.0244     0.3548 H            1    LIG   0.0000
  58 H            2.8807     0.9938    -0.4615 H            1    LIG   0.0000
  59 H            3.2291     1.7330     0.9522 H            1    LIG   0.0000
  60 H            0.9428     2.3597     1.1948 H            1    LIG   0.0000
  61 H            1.5131     2.9261    -0.2267 H            1    LIG   0.0000
  62 H           -1.0276    -0.5767    -1.9790 H            1    LIG   0.0000
  63 H           -2.2383    -0.2680    -3.0304 H            1    LIG   0.0000
  64 H           -2.5237    -0.2399    -0.1573 H            1    LIG   0.0000
  65 H           -3.7344     0.0688    -1.2087 H            1    LIG   0.0000
  66 H           -3.9995    -2.2037    -1.6272 H            1    LIG   0.0000
  67 H           -3.9563    -4.3540    -2.3152 H            1    LIG   0.0000
  68 H           -3.8809    -6.9134    -1.8001 H            1    LIG   0.0000
  69 H           -2.2920     1.0327    -4.9683 H            1    LIG   0.0000
  70 H           -4.1237     0.7815    -6.4930 H            1    LIG   0.0000
@<TRIPOS>BOND
   1        1        2 1
   2        2        3 1
   3        3        4 ar
   4        4        5 ar
   5        5        6 ar
   6        6        7 1
   7        7        8 2
   8        8        9 1
   9        9       10 2
  10       10       11 1
  11       11       12 1
  12       12       13 1
  13       13       14 1
  14       14       15 am
  15       15       16 2
  16       15       17 1
  17       17       18 1
  18       18       19 1
  19       19       20 1
  20       19       21 1
  21       14       22 1
  22       22       23 1
  23       23       11 1
  24       10       24 1
  25       24        7 1
  26       24       25 1
  27       25       26 1
  28       26       27 1
  29       27       28 am
  30       28       29 2
  31       28       30 1
  32       30       31 2
  33       31       32 1
  34       32       33 2
  35       33       34 1
  36       34       30 1
  37        6       35 ar
  38       35       36 ar
  39       36        3 ar
  40       34       37 1
  41        1       38 1
  42        1       39 1
  43        1       40 1
  44        2       41 1
  45        2       42 1
  46        4       43 1
  47        5       44 1
  48       12       45 1
  49       12       46 1
  50       13       47 1
  51       13       48 1
  52       18       49 1
  53       18       50 1
  54       19       51 1
  55       20       52 1
  56       20       53 1
  57       20       54 1
  58       21       55 1
  59       21       56 1
  60       21       57 1
  61       22       58 1
  62       22       59 1
  63       23       60 1
  64       23       61 1
  65       25       62 1
  66       25       63 1
  67       26       64 1
  68       26       65 1
  69       27       66 1
  70       31       67 1
  71       32       68 1
  72       35       69 1
  73       36       70 1

@<TRIPOS>MOLECULE

  70   73
SMALL
USER_CHARGES
@<TRIPOS>ATOM
   1 C1          -6.5903     2.8838    -7.3647 C.3          1    LIG   0.0000
   2 C2          -6.6232     1.7595    -6.3423 C.3          1    LIG   0.0000
   3 C3          -5.4610     1.9188    -5.3768 C.ar         1    LIG   0.0000
   4 C4          -5.6277     2.6682    -4.2172 C.ar         1    LIG   0.0000
   5 C5          -4.5686     2.8185    -3.3281 C.ar         1    LIG   0.0000
   6 C6          -3.3494     2.2133    -3.6151 C.ar         1    LIG   0.0000
   7 C7          -2.2426     2.3668    -2.6914 C.2          1    LIG   0.0000
   8 N8          -1.6833     3.4903    -2.3255 N.2          1    LIG   0.0000
   9 N9          -0.6985     3.2502    -1.4781 N.2          1    LIG   0.0000
  10 C10         -0.6183     1.9579    -1.2678 C.2          1    LIG   0.0000
  11 N11          0.2887     1.3049    -0.4259 N.pl3        1    LIG   0.0000
  12 C12          0.2714    -0.1581    -0.2794 C.3          1    LIG   0.0000
  13 C13          0.8160    -0.5372     1.0881 C.3          1    LIG   0.0000
  14 N14          2.1792     0.0034     1.1723 N.am         1    LIG   0.0000
  15 C15          3.1329    -0.6870     1.9273 C.2          1    LIG   0.0000
  16 O16          2.9660    -1.8460     2.1898 O.2          1    LIG   0.0000
  17 O17          4.2083    -0.0684     2.3480 O.3          1    LIG   0.0000
  18 C18          5.2968    -0.9081     2.7037 C.3          1    LIG   0.0000
  19 C19          4.9589    -1.6628     3.9790 C.3          1    LIG   0.0000
  20 C20          5.8538    -2.8859     4.0962 C.3          1    LIG   0.0000
  21 C21          5.1808    -0.7558     5.1784 C.3          1    LIG   0.0000
  22 C22          2.5289     1.2318     0.4438 C.3          1    LIG   0.0000
  23 C23          1.2918     2.1015     0.2940 C.3          1    LIG   0.0000
  24 N24         -1.5882     1.3777    -2.0277 N.pl3        1    LIG   0.0000
  25 C25         -1.8716    -0.0603    -2.1236 C.3          1    LIG   0.0000
  26 C26         -2.8904    -0.4476    -1.0641 C.3          1    LIG   0.0000
  27 N27         -3.1741    -1.8868    -1.1601 N.am         1    LIG   0.0000
  28 C28         -2.3075    -2.7940    -0.6096 C.2          1    LIG   0.0000
  29 O29         -1.3170    -2.4137    -0.0490 O.2          1    LIG   0.0000
  30 C30         -2.5870    -4.2120    -0.7042 C.2          1    LIG   0.0000
  31 C31         -3.4217    -4.8066    -1.6016 C.2          1    LIG   0.0000
  32 C32         -3.3808    -6.1912    -1.3221 C.2          1    LIG   0.0000
  33 N33         -2.5573    -6.3426    -0.3116 N.2          1    LIG   0.0000
  34 N34         -2.0624    -5.1914     0.0860 N.pl3        1    LIG   0.0000
  35 C35         -3.1735     1.4628    -4.7733 C.ar         1    LIG   0.0000
  36 C36         -4.2376     1.3177    -5.6567 C.ar         1    LIG   0.0000
  37 H           -1.4150    -5.0576     0.8363 H            1    LIG   0.0000
  38 H           -7.3553     2.7789    -8.0002 H            1    LIG   0.0000
  39 H           -6.6652     3.7636    -6.8952 H            1    LIG   0.0000
  40 H           -5.7289     2.8486    -7.8713 H            1    LIG   0.0000
  41 H           -7.4847     1.7947    -5.8357 H            1    LIG   0.0000
  42 H           -6.5484     0.8797    -6.8118 H            1    LIG   0.0000
  43 H           -6.5090     3.0989    -4.0225 H            1    LIG   0.0000
  44 H           -4.6823     3.3554    -2.4921 H            1    LIG   0.0000
  45 H            0.8401    -0.5710    -0.9908 H            1    LIG   0.0000
  46 H           -0.6674    -0.4909    -0.3682 H            1    LIG   0.0000
  47 H            0.2446    -0.1414     1.8071 H            1    LIG   0.0000
  48 H            0.8344    -1.5321     1.1868 H            1    LIG   0.0000
  49 H            6.1132    -0.3502     2.8529 H            1    LIG   0.0000
  50 H            5.4693    -1.5607     1.9659 H            1    LIG   0.0000
  51 H            4.0018    -1.9514     3.9519 H            1    LIG   0.0000
  52 H            5.6314    -3.3824     4.9353 H            1    LIG   0.0000
  53 H            5.7078    -3.4826     3.3071 H            1    LIG   0.0000
  54 H            6.8108    -2.5973     4.1233 H            1    LIG   0.0000
  55 H            4.9585    -1.2524     6.0175 H            1    LIG   0.0000
  56 H            6.1379    -0.4673     5.2056 H            1    LIG   0.0000
  57 H            4.5921     0.0488     5.1014 H            1    LIG   0.0000
  58 H            2.8807     0.9938    -0.4615 H            1    LIG   0.0000
  59 H            3.2291     1.7330     0.9522 H            1    LIG   0.0000
  60 H            0.9428     2.3597     1.1948 H            1    LIG   0.0000
  61 H            1.5131     2.9261    -0.2267 H            1    LIG   0.0000
  62 H           -1.0276    -0.5767    -1.9790 H            1    LIG   0.0000
  63 H           -2.2383    -0.2680    -3.0304 H            1    LIG   0.0000
  64 H           -2.5237    -0.2399    -0.1573 H            1    LIG   0.0000
  65 H           -3.7344     0.0688    -1.2087 H            1    LIG   0.0000
  66 H           -3.9995    -2.2037    -1.6272 H            1    LIG   0.0000
  67 H           -3.9563    -4.3540    -2.3152 H            1    LIG   0.0000
  68 H           -3.8809    -6.9134    -1.8001 H            1    LIG   0.0000
  69 H           -2.2920     1.0327    -4.9683 H            1    LIG   0.0000
  70 H           -4.1237     0.7815    -6.4930 H            1    LIG   0.0000
@<TRIPOS>BOND
   1        1        2 1
   2        2        3 1
   3        3        4 ar
   4        4        5 ar
   5        5        6 ar
   6        6        7 1
   7        7        8 2
   8        8        9 1
   9        9       10 2
  10       10       11 1
  11       11       12 1
  12       12       13 1
  13       13       14 1
  14       14       15 am
  15       15       16 2
  16       15       17 1
  17       17       18 1
  18       18       19 1
  19       19       20 1
  20       19       21 1
  21       14       22 1
  22       22       23 1
  23       23       11 1
  24       10       24 1
  25       24        7 1
  26       24       25 1
  27       25       26 1
  28       26       27 1
  29       27       28 am
  30       28       29 2
  31       28       30 1
  32       30       31 2
  33       31       32 1
  34       32       33 2
  35       33       34 1
  36       34       30 1
  37        6       35 ar
  38       35       36 ar
  39       36        3 ar
  40       34       37 1
  41        1       38 1
  42        1       39 1
  43        1       40 1
  44        2       41 1
  45        2       42 1
  46        4       43 1
  47        5       44 1
  48       12       45 1
  49       12       46 1
  50       13       47 1
  51       13       48 1
  52       18       49 1
  53       18       50 1
  54       19       51 1
  55       20       52 1
  56       20       53 1
  57       20       54 1
  58       21       55 1
  59       21       56 1
  60       21       57 1
  61       22       58 1
  62       22       59 1
  63       23       60 1
  64       23       61 1
  65       25       62 1
  66       25       63 1
  67       26       64 1
  68       26       65 1
  69       27       66 1
  70       31       67 1
  71       32       68 1
  72       35       69 1
  73       36       70 1

