@<TRIPOS>MOLECULE
*****
 70 73 0 0 0
SMALL
USER_CHARGES

@<TRIPOS>ATOM
      1 C1         -7.8317    2.5137   -5.8137 C.3     1  LIG1        0.0000
      2 C2         -6.6213    1.7635   -6.3452 C.3     1  LIG1        0.0000
      3 C3         -5.4621    1.9210   -5.3759 C.3     1  LIG1        0.0000
      4 C4         -4.5799    2.9856   -5.5254 C.3     1  LIG1        0.0000
      5 C5         -3.5163    3.1368   -4.6418 C.3     1  LIG1        0.0000
      6 C6         -3.3494    2.2133   -3.6151 C.3     1  LIG1        0.0000
      7 C7         -2.2426    2.3668   -2.6914 C.2     1  LIG1        0.0000
      8 N8         -1.6833    3.4903   -2.3255 N.2     1  LIG1        0.0000
      9 N9         -0.6985    3.2502   -1.4781 N.2     1  LIG1        0.0000
     10 C10        -0.6183    1.9579   -1.2678 C.cat   1  LIG1        0.0000
     11 N11         0.2887    1.3049   -0.4259 N.pl3   1  LIG1        0.0000
     12 C12         0.2714   -0.1581   -0.2794 C.3     1  LIG1        0.0000
     13 C13         0.8160   -0.5372    1.0881 C.3     1  LIG1        0.0000
     14 N14         2.1792    0.0034    1.1723 N.am    1  LIG1        0.0000
     15 C15         3.1329   -0.6870    1.9273 C.2     1  LIG1        0.0000
     16 O16         2.8311   -1.7020    2.4920 O.2     1  LIG1        0.0000
     17 O17         4.3556   -0.2257    2.0182 O.3     1  LIG1        0.0000
     18 C18         5.2446   -1.0015    2.8082 C.3     1  LIG1        0.0000
     19 C19         6.6158   -0.3457    2.8198 C.3     1  LIG1        0.0000
     20 C20         7.5675   -1.1762    3.6654 C.3     1  LIG1        0.0000
     21 C21         7.1471   -0.2569    1.3984 C.3     1  LIG1        0.0000
     22 C22         2.5289    1.2318    0.4438 C.3     1  LIG1        0.0000
     23 C23         1.2918    2.1015    0.2940 C.3     1  LIG1        0.0000
     24 N24        -1.5882    1.3777   -2.0277 N.pl3   1  LIG1        0.0000
     25 C25        -1.8716   -0.0603   -2.1236 C.3     1  LIG1        0.0000
     26 C26        -2.8904   -0.4476   -1.0641 C.3     1  LIG1        0.0000
     27 N27        -3.1741   -1.8868   -1.1601 N.am    1  LIG1        0.0000
     28 C28        -2.3075   -2.7940   -0.6096 C.2     1  LIG1        0.0000
     29 O29        -1.3170   -2.4137   -0.0490 O.2     1  LIG1        0.0000
     30 C30        -2.5870   -4.2120   -0.7042 C.2     1  LIG1        0.0000
     31 C31        -3.6679   -4.7775   -1.3104 C.2     1  LIG1        0.0000
     32 C32        -3.5205   -6.1746   -1.1581 C.2     1  LIG1        0.0000
     33 N33        -2.4040   -6.3606   -0.4940 N.2     1  LIG1        0.0000
     34 N34        -1.8170   -5.2203   -0.2051 N.pl3   1  LIG1        0.0000
     35 C35        -4.2265    1.1446   -3.4586 C.3     1  LIG1        0.0000
     36 C36        -5.2871    1.0011   -4.3466 C.3     1  LIG1        0.0000
     37 H          -0.9568   -5.1117    0.2931 H       1  LIG1        0.0000
     38 H          -8.5947    2.4101   -6.4517 H       1  LIG1        0.0000
     39 H          -8.0897    2.1412   -4.9222 H       1  LIG1        0.0000
     40 H          -7.6071    3.4834   -5.7174 H       1  LIG1        0.0000
     41 H          -6.8460    0.7939   -6.4415 H       1  LIG1        0.0000
     42 H          -6.3633    2.1360   -7.2367 H       1  LIG1        0.0000
     43 H          -4.7102    3.6424   -6.2681 H       1  LIG1        0.0000
     44 H          -2.8790    3.9007   -4.7436 H       1  LIG1        0.0000
     45 H           0.8401   -0.5710   -0.9908 H       1  LIG1        0.0000
     46 H          -0.6674   -0.4909   -0.3682 H       1  LIG1        0.0000
     47 H           0.2446   -0.1414    1.8071 H       1  LIG1        0.0000
     48 H           0.8344   -1.5321    1.1868 H       1  LIG1        0.0000
     49 H           5.3181   -1.9209    2.4217 H       1  LIG1        0.0000
     50 H           4.8951   -1.0599    3.7433 H       1  LIG1        0.0000
     51 H           6.5424    0.5737    3.2063 H       1  LIG1        0.0000
     52 H           8.4696   -0.7448    3.6731 H       1  LIG1        0.0000
     53 H           7.2180   -1.2346    4.6005 H       1  LIG1        0.0000
     54 H           7.6410   -2.0956    3.2790 H       1  LIG1        0.0000
     55 H           8.0492    0.1745    1.4061 H       1  LIG1        0.0000
     56 H           7.2206   -1.1763    1.0120 H       1  LIG1        0.0000
     57 H           6.5210    0.2895    0.8421 H       1  LIG1        0.0000
     58 H           2.8807    0.9938   -0.4615 H       1  LIG1        0.0000
     59 H           3.2291    1.7330    0.9522 H       1  LIG1        0.0000
     60 H           0.9428    2.3597    1.1948 H       1  LIG1        0.0000
     61 H           1.5131    2.9261   -0.2267 H       1  LIG1        0.0000
     62 H          -1.0276   -0.5767   -1.9790 H       1  LIG1        0.0000
     63 H          -2.2383   -0.2680   -3.0304 H       1  LIG1        0.0000
     64 H          -2.5237   -0.2399   -0.1573 H       1  LIG1        0.0000
     65 H          -3.7344    0.0688   -1.2087 H       1  LIG1        0.0000
     66 H          -3.9995   -2.2037   -1.6272 H       1  LIG1        0.0000
     67 H          -4.4160   -4.2997   -1.7709 H       1  LIG1        0.0000
     68 H          -4.1440   -6.8821   -1.4907 H       1  LIG1        0.0000
     69 H          -4.0957    0.4874   -2.7164 H       1  LIG1        0.0000
     70 H          -5.9240    0.2368   -4.2453 H       1  LIG1        0.0000
@<TRIPOS>BOND
     1     1     2    1
     2     2     3    1
     3     3     4   ar
     4     4     5   ar
     5     5     6   ar
     6     6     7    1
     7     7     8    2
     8     8     9    1
     9     9    10    2
    10    10    11    1
    11    11    12    1
    12    12    13    1
    13    13    14    1
    14    14    15   am
    15    15    16    2
    16    15    17    1
    17    17    18    1
    18    18    19    1
    19    19    20    1
    20    19    21    1
    21    14    22    1
    22    22    23    1
    23    23    11    1
    24    10    24    1
    25    24     7    1
    26    24    25    1
    27    25    26    1
    28    26    27    1
    29    27    28   am
    30    28    29    2
    31    28    30    1
    32    30    31    2
    33    31    32    1
    34    32    33    2
    35    33    34    1
    36    34    30    1
    37     6    35   ar
    38    35    36   ar
    39    36     3   ar
    40    34    37    1
    41     1    38    1
    42     1    39    1
    43     1    40    1
    44     2    41    1
    45     2    42    1
    46     4    43    1
    47     5    44    1
    48    12    45    1
    49    12    46    1
    50    13    47    1
    51    13    48    1
    52    18    49    1
    53    18    50    1
    54    19    51    1
    55    20    52    1
    56    20    53    1
    57    20    54    1
    58    21    55    1
    59    21    56    1
    60    21    57    1
    61    22    58    1
    62    22    59    1
    63    23    60    1
    64    23    61    1
    65    25    62    1
    66    25    63    1
    67    26    64    1
    68    26    65    1
    69    27    66    1
    70    31    67    1
    71    32    68    1
    72    35    69    1
    73    36    70    1
