@<TRIPOS>MOLECULE

  28   28
SMALL
USER_CHARGES
@<TRIPOS>ATOM
   1 C1           3.2696     1.9669     1.2738 C.3          1    LIG   0.0000
   2 C2           1.8776     1.8776     1.8776 C.3          1    LIG   0.0000
   3 C3           1.0000     1.0000     1.0000 C.3          1    LIG   0.0000
   4 C4           1.2925     1.2925    -0.4626 C.3          1    LIG   0.0000
   5 C5           2.5573     0.5614    -0.8824 C.3          1    LIG   0.0000
   6 S6          -0.7417     1.3483     1.3483 S.3          1    LIG   0.0000
   7 C7          -1.5693     0.2657     0.2657 C.ar         1    LIG   0.0000
   8 C8          -0.8055    -0.5569    -0.5569 C.ar         1    LIG   0.0000
   9 C9          -1.4519    -1.4274    -1.4281 C.ar         1    LIG   0.0000
  10 C10         -2.8420    -1.4616    -1.4626 C.ar         1    LIG   0.0000
  11 C11         -3.5502    -0.6150    -0.6163 C.ar         1    LIG   0.0000
  12 N12         -2.9094     0.2179     0.2166 N.ar         1    LIG   1.0000
  13 O13         -3.6160     0.9902     0.9874 O.3          1    LIG  -1.0000
  14 H            3.8470     2.5443     1.8511 H            1    LIG   0.0000
  15 H            3.6669     1.0511     1.2150 H            1    LIG   0.0000
  16 H            3.2109     2.3642     0.3579 H            1    LIG   0.0000
  17 H            1.9363     1.4803     2.7934 H            1    LIG   0.0000
  18 H            1.4803     2.7934     1.9363 H            1    LIG   0.0000
  19 H            1.1925     0.0377     1.1925 H            1    LIG   0.0000
  20 H            1.4196     2.2766    -0.5868 H            1    LIG   0.0000
  21 H            0.5258     0.9819    -1.0245 H            1    LIG   0.0000
  22 H            2.7497     0.7539    -1.8447 H            1    LIG   0.0000
  23 H            3.3240     0.8721    -0.3206 H            1    LIG   0.0000
  24 H            2.4302    -0.4227    -0.7582 H            1    LIG   0.0000
  25 H            0.1933    -0.5227    -0.5221 H            1    LIG   0.0000
  26 H           -0.9197    -2.0258    -2.0270 H            1    LIG   0.0000
  27 H           -3.3221    -2.0820    -2.0827 H            1    LIG   0.0000
  28 H           -4.5501    -0.6275    -0.6292 H            1    LIG   0.0000
@<TRIPOS>BOND
   1        1        2 1
   2        2        3 1
   3        3        4 1
   4        4        5 1
   5        3        6 1
   6        6        7 1
   7        7        8 ar
   8        8        9 ar
   9        9       10 ar
  10       10       11 ar
  11       11       12 ar
  12       12        7 ar
  13       12       13 1
  14        1       14 1
  15        1       15 1
  16        1       16 1
  17        2       17 1
  18        2       18 1
  19        3       19 1
  20        4       20 1
  21        4       21 1
  22        5       22 1
  23        5       23 1
  24        5       24 1
  25        8       25 1
  26        9       26 1
  27       10       27 1
  28       11       28 1

@<TRIPOS>MOLECULE

  28   28
SMALL
USER_CHARGES
@<TRIPOS>ATOM
   1 C1           3.2696     1.9669     1.2738 C.3          1    LIG   0.0000
   2 C2           1.8776     1.8776     1.8776 C.3          1    LIG   0.0000
   3 C3           1.0000     1.0000     1.0000 C.3          1    LIG   0.0000
   4 C4           1.2925     1.2925    -0.4626 C.3          1    LIG   0.0000
   5 C5           2.5573     0.5614    -0.8824 C.3          1    LIG   0.0000
   6 S6          -0.7417     1.3483     1.3483 S.3          1    LIG   0.0000
   7 C7          -1.5693     0.2657     0.2657 C.ar         1    LIG   0.0000
   8 C8          -2.9446     0.4111     0.1103 C.ar         1    LIG   0.0000
   9 C9          -3.6207    -0.4467    -0.7509 C.ar         1    LIG   0.0000
  10 C10         -2.9160    -1.4291    -1.4385 C.ar         1    LIG   0.0000
  11 C11         -1.5425    -1.5249    -1.2412 C.ar         1    LIG   0.0000
  12 N12         -0.9080    -0.6891    -0.4063 N.ar         1    LIG   1.0000
  13 O13          0.3765    -0.8194    -0.2550 O.3          1    LIG  -1.0000
  14 H            3.8470     2.5443     1.8511 H            1    LIG   0.0000
  15 H            3.6669     1.0511     1.2150 H            1    LIG   0.0000
  16 H            3.2109     2.3642     0.3579 H            1    LIG   0.0000
  17 H            1.9363     1.4803     2.7934 H            1    LIG   0.0000
  18 H            1.4803     2.7934     1.9363 H            1    LIG   0.0000
  19 H            1.1925     0.0377     1.1925 H            1    LIG   0.0000
  20 H            1.4196     2.2766    -0.5868 H            1    LIG   0.0000
  21 H            0.5258     0.9819    -1.0245 H            1    LIG   0.0000
  22 H            2.7497     0.7539    -1.8447 H            1    LIG   0.0000
  23 H            3.3240     0.8721    -0.3206 H            1    LIG   0.0000
  24 H            2.4302    -0.4227    -0.7582 H            1    LIG   0.0000
  25 H           -3.4394     1.1218     0.6103 H            1    LIG   0.0000
  26 H           -4.6089    -0.3575    -0.8751 H            1    LIG   0.0000
  27 H           -3.3869    -2.0534    -2.0618 H            1    LIG   0.0000
  28 H           -1.0215    -2.2260    -1.7281 H            1    LIG   0.0000
@<TRIPOS>BOND
   1        1        2 1
   2        2        3 1
   3        3        4 1
   4        4        5 1
   5        3        6 1
   6        6        7 1
   7        7        8 ar
   8        8        9 ar
   9        9       10 ar
  10       10       11 ar
  11       11       12 ar
  12       12        7 ar
  13       12       13 1
  14        1       14 1
  15        1       15 1
  16        1       16 1
  17        2       17 1
  18        2       18 1
  19        3       19 1
  20        4       20 1
  21        4       21 1
  22        5       22 1
  23        5       23 1
  24        5       24 1
  25        8       25 1
  26        9       26 1
  27       10       27 1
  28       11       28 1

@<TRIPOS>MOLECULE

  28   28
SMALL
USER_CHARGES
@<TRIPOS>ATOM
   1 C1           3.2696     1.9669     1.2738 C.3          1    LIG   0.0000
   2 C2           1.8776     1.8776     1.8776 C.3          1    LIG   0.0000
   3 C3           1.0000     1.0000     1.0000 C.3          1    LIG   0.0000
   4 C4           1.2925     1.2925    -0.4626 C.3          1    LIG   0.0000
   5 C5           2.5573     0.5614    -0.8824 C.3          1    LIG   0.0000
   6 S6          -0.7417     1.3483     1.3483 S.3          1    LIG   0.0000
   7 C7          -1.5693     0.2657     0.2657 C.ar         1    LIG   0.0000
   8 C8          -1.8832     0.7213    -1.0112 C.ar         1    LIG   0.0000
   9 C9          -2.5451    -0.1317    -1.8882 C.ar         1    LIG   0.0000
  10 C10         -2.8798    -1.4177    -1.4776 C.ar         1    LIG   0.0000
  11 C11         -2.5394    -1.8151    -0.1888 C.ar         1    LIG   0.0000
  12 N12         -1.9018    -0.9784     0.6427 N.ar         1    LIG   1.0000
  13 O13         -1.6061    -1.3964     1.8376 O.3          1    LIG  -1.0000
  14 H            3.8470     2.5443     1.8511 H            1    LIG   0.0000
  15 H            3.6669     1.0511     1.2150 H            1    LIG   0.0000
  16 H            3.2109     2.3642     0.3579 H            1    LIG   0.0000
  17 H            1.9363     1.4803     2.7934 H            1    LIG   0.0000
  18 H            1.4803     2.7934     1.9363 H            1    LIG   0.0000
  19 H            1.1925     0.0377     1.1925 H            1    LIG   0.0000
  20 H            1.4196     2.2766    -0.5868 H            1    LIG   0.0000
  21 H            0.5258     0.9819    -1.0245 H            1    LIG   0.0000
  22 H            2.7497     0.7539    -1.8447 H            1    LIG   0.0000
  23 H            3.3240     0.8721    -0.3206 H            1    LIG   0.0000
  24 H            2.4302    -0.4227    -0.7582 H            1    LIG   0.0000
  25 H           -1.6366     1.6482    -1.2941 H            1    LIG   0.0000
  26 H           -2.7792     0.1783    -2.8097 H            1    LIG   0.0000
  27 H           -3.3552    -2.0435    -2.0959 H            1    LIG   0.0000
  28 H           -2.7732    -2.7365     0.1216 H            1    LIG   0.0000
@<TRIPOS>BOND
   1        1        2 1
   2        2        3 1
   3        3        4 1
   4        4        5 1
   5        3        6 1
   6        6        7 1
   7        7        8 ar
   8        8        9 ar
   9        9       10 ar
  10       10       11 ar
  11       11       12 ar
  12       12        7 ar
  13       12       13 1
  14        1       14 1
  15        1       15 1
  16        1       16 1
  17        2       17 1
  18        2       18 1
  19        3       19 1
  20        4       20 1
  21        4       21 1
  22        5       22 1
  23        5       23 1
  24        5       24 1
  25        8       25 1
  26        9       26 1
  27       10       27 1
  28       11       28 1

@<TRIPOS>MOLECULE

  28   28
SMALL
USER_CHARGES
@<TRIPOS>ATOM
   1 C1           3.2696     1.9669     1.2738 C.3          1    LIG   0.0000
   2 C2           1.8776     1.8776     1.8776 C.3          1    LIG   0.0000
   3 C3           1.0000     1.0000     1.0000 C.3          1    LIG   0.0000
   4 C4           1.2925     1.2925    -0.4626 C.3          1    LIG   0.0000
   5 C5           2.5573     0.5614    -0.8824 C.3          1    LIG   0.0000
   6 S6          -0.7417     1.3483     1.3483 S.3          1    LIG   0.0000
   7 C7          -1.5693     0.2657     0.2657 C.ar         1    LIG   0.0000
   8 C8          -1.8832    -1.0112     0.7213 C.ar         1    LIG   0.0000
   9 C9          -2.5441    -1.8886    -0.1320 C.ar         1    LIG   0.0000
  10 C10         -2.8786    -1.4780    -1.4182 C.ar         1    LIG   0.0000
  11 C11         -2.5378    -0.1895    -1.8158 C.ar         1    LIG   0.0000
  12 N12         -1.9001     0.6421    -0.9790 N.ar         1    LIG   1.0000
  13 O13         -1.6025     1.8362    -1.3978 O.3          1    LIG  -1.0000
  14 H            3.8470     2.5443     1.8511 H            1    LIG   0.0000
  15 H            3.6669     1.0511     1.2150 H            1    LIG   0.0000
  16 H            3.2109     2.3642     0.3579 H            1    LIG   0.0000
  17 H            1.9363     1.4803     2.7934 H            1    LIG   0.0000
  18 H            1.4803     2.7934     1.9363 H            1    LIG   0.0000
  19 H            1.1925     0.0377     1.1925 H            1    LIG   0.0000
  20 H            1.4196     2.2766    -0.5868 H            1    LIG   0.0000
  21 H            0.5258     0.9819    -1.0245 H            1    LIG   0.0000
  22 H            2.7497     0.7539    -1.8447 H            1    LIG   0.0000
  23 H            3.3240     0.8721    -0.3206 H            1    LIG   0.0000
  24 H            2.4302    -0.4227    -0.7582 H            1    LIG   0.0000
  25 H           -1.6373    -1.2939     1.6484 H            1    LIG   0.0000
  26 H           -2.7776    -2.8103     0.1777 H            1    LIG   0.0000
  27 H           -3.3543    -2.0963    -2.0439 H            1    LIG   0.0000
  28 H           -2.7712     0.1208    -2.7373 H            1    LIG   0.0000
@<TRIPOS>BOND
   1        1        2 1
   2        2        3 1
   3        3        4 1
   4        4        5 1
   5        3        6 1
   6        6        7 1
   7        7        8 ar
   8        8        9 ar
   9        9       10 ar
  10       10       11 ar
  11       11       12 ar
  12       12        7 ar
  13       12       13 1
  14        1       14 1
  15        1       15 1
  16        1       16 1
  17        2       17 1
  18        2       18 1
  19        3       19 1
  20        4       20 1
  21        4       21 1
  22        5       22 1
  23        5       23 1
  24        5       24 1
  25        8       25 1
  26        9       26 1
  27       10       27 1
  28       11       28 1

@<TRIPOS>MOLECULE

  28   28
SMALL
USER_CHARGES
@<TRIPOS>ATOM
   1 C1           3.2696     1.9669     1.2738 C.3          1    LIG   0.0000
   2 C2           1.8776     1.8776     1.8776 C.3          1    LIG   0.0000
   3 C3           1.0000     1.0000     1.0000 C.3          1    LIG   0.0000
   4 C4           1.2925     1.2925    -0.4626 C.3          1    LIG   0.0000
   5 C5           2.5573     0.5614    -0.8824 C.3          1    LIG   0.0000
   6 S6          -0.7417     1.3483     1.3483 S.3          1    LIG   0.0000
   7 C7          -0.9489     0.6881     2.9453 C.ar         1    LIG   0.0000
   8 C8           0.1478     0.0921     3.5607 C.ar         1    LIG   0.0000
   9 C9          -0.0016    -0.4408     4.8368 C.ar         1    LIG   0.0000
  10 C10         -1.2365    -0.3695     5.4730 C.ar         1    LIG   0.0000
  11 C11         -2.2951     0.2382     4.8062 C.ar         1    LIG   0.0000
  12 N12         -2.1319     0.7459     3.5758 N.ar         1    LIG   1.0000
  13 O13         -3.1521     1.3032     2.9940 O.3          1    LIG  -1.0000
  14 H            3.8470     2.5443     1.8511 H            1    LIG   0.0000
  15 H            3.6669     1.0511     1.2150 H            1    LIG   0.0000
  16 H            3.2109     2.3642     0.3579 H            1    LIG   0.0000
  17 H            1.9363     1.4803     2.7934 H            1    LIG   0.0000
  18 H            1.4803     2.7934     1.9363 H            1    LIG   0.0000
  19 H            1.1925     0.0377     1.1925 H            1    LIG   0.0000
  20 H            1.4196     2.2766    -0.5868 H            1    LIG   0.0000
  21 H            0.5258     0.9819    -1.0245 H            1    LIG   0.0000
  22 H            2.7497     0.7539    -1.8447 H            1    LIG   0.0000
  23 H            3.3240     0.8721    -0.3206 H            1    LIG   0.0000
  24 H            2.4302    -0.4227    -0.7582 H            1    LIG   0.0000
  25 H            1.0303     0.0477     3.0925 H            1    LIG   0.0000
  26 H            0.7751    -0.8732     5.2947 H            1    LIG   0.0000
  27 H           -1.3605    -0.7473     6.3905 H            1    LIG   0.0000
  28 H           -3.1893     0.2973     5.2500 H            1    LIG   0.0000
@<TRIPOS>BOND
   1        1        2 1
   2        2        3 1
   3        3        4 1
   4        4        5 1
   5        3        6 1
   6        6        7 1
   7        7        8 ar
   8        8        9 ar
   9        9       10 ar
  10       10       11 ar
  11       11       12 ar
  12       12        7 ar
  13       12       13 1
  14        1       14 1
  15        1       15 1
  16        1       16 1
  17        2       17 1
  18        2       18 1
  19        3       19 1
  20        4       20 1
  21        4       21 1
  22        5       22 1
  23        5       23 1
  24        5       24 1
  25        8       25 1
  26        9       26 1
  27       10       27 1
  28       11       28 1

@<TRIPOS>MOLECULE

  28   28
SMALL
USER_CHARGES
@<TRIPOS>ATOM
   1 C1           3.2696     1.9669     1.2738 C.3          1    LIG   0.0000
   2 C2           1.8776     1.8776     1.8776 C.3          1    LIG   0.0000
   3 C3           1.0000     1.0000     1.0000 C.3          1    LIG   0.0000
   4 C4           1.2925     1.2925    -0.4626 C.3          1    LIG   0.0000
   5 C5           2.5573     0.5614    -0.8824 C.3          1    LIG   0.0000
   6 S6          -0.7417     1.3483     1.3483 S.3          1    LIG   0.0000
   7 C7          -0.9489     0.6881     2.9453 C.ar         1    LIG   0.0000
   8 C8          -1.3408    -0.6420     3.0641 C.ar         1    LIG   0.0000
   9 C9          -1.5113    -1.1844     4.3334 C.ar         1    LIG   0.0000
  10 C10         -1.2883    -0.3941     5.4561 C.ar         1    LIG   0.0000
  11 C11         -0.8984     0.9284     5.2728 C.ar         1    LIG   0.0000
  12 N12         -0.7397     1.4339     4.0409 N.ar         1    LIG   1.0000
  13 O13         -0.3747     2.6759     3.9219 O.3          1    LIG  -1.0000
  14 H            3.8470     2.5443     1.8511 H            1    LIG   0.0000
  15 H            3.6669     1.0511     1.2150 H            1    LIG   0.0000
  16 H            3.2109     2.3642     0.3579 H            1    LIG   0.0000
  17 H            1.9363     1.4803     2.7934 H            1    LIG   0.0000
  18 H            1.4803     2.7934     1.9363 H            1    LIG   0.0000
  19 H            1.1925     0.0377     1.1925 H            1    LIG   0.0000
  20 H            1.4196     2.2766    -0.5868 H            1    LIG   0.0000
  21 H            0.5258     0.9819    -1.0245 H            1    LIG   0.0000
  22 H            2.7497     0.7539    -1.8447 H            1    LIG   0.0000
  23 H            3.3240     0.8721    -0.3206 H            1    LIG   0.0000
  24 H            2.4302    -0.4227    -0.7582 H            1    LIG   0.0000
  25 H           -1.4976    -1.1995     2.2488 H            1    LIG   0.0000
  26 H           -1.7929    -2.1382     4.4384 H            1    LIG   0.0000
  27 H           -1.4059    -0.7689     6.3757 H            1    LIG   0.0000
  28 H           -0.7344     1.5096     6.0698 H            1    LIG   0.0000
@<TRIPOS>BOND
   1        1        2 1
   2        2        3 1
   3        3        4 1
   4        4        5 1
   5        3        6 1
   6        6        7 1
   7        7        8 ar
   8        8        9 ar
   9        9       10 ar
  10       10       11 ar
  11       11       12 ar
  12       12        7 ar
  13       12       13 1
  14        1       14 1
  15        1       15 1
  16        1       16 1
  17        2       17 1
  18        2       18 1
  19        3       19 1
  20        4       20 1
  21        4       21 1
  22        5       22 1
  23        5       23 1
  24        5       24 1
  25        8       25 1
  26        9       26 1
  27       10       27 1
  28       11       28 1

@<TRIPOS>MOLECULE

  28   28
SMALL
USER_CHARGES
@<TRIPOS>ATOM
   1 C1           3.2696     1.9669     1.2738 C.3          1    LIG   0.0000
   2 C2           1.8776     1.8776     1.8776 C.3          1    LIG   0.0000
   3 C3           1.0000     1.0000     1.0000 C.3          1    LIG   0.0000
   4 C4           1.2925     1.2925    -0.4626 C.3          1    LIG   0.0000
   5 C5           2.5573     0.5614    -0.8824 C.3          1    LIG   0.0000
   6 S6          -0.7417     1.3483     1.3483 S.3          1    LIG   0.0000
   7 C7          -0.9489     0.6881     2.9453 C.ar         1    LIG   0.0000
   8 C8          -0.7142     1.5172     4.0381 C.ar         1    LIG   0.0000
   9 C9          -0.8749     1.0043     5.3210 C.ar         1    LIG   0.0000
  10 C10         -1.2654    -0.3199     5.4897 C.ar         1    LIG   0.0000
  11 C11         -1.4848    -1.0989     4.3585 C.ar         1    LIG   0.0000
  12 N12         -1.3242    -0.5870     3.1296 N.ar         1    LIG   1.0000
  13 O13         -1.5406    -1.3556     2.1038 O.3          1    LIG  -1.0000
  14 H            3.8470     2.5443     1.8511 H            1    LIG   0.0000
  15 H            3.6669     1.0511     1.2150 H            1    LIG   0.0000
  16 H            3.2109     2.3642     0.3579 H            1    LIG   0.0000
  17 H            1.9363     1.4803     2.7934 H            1    LIG   0.0000
  18 H            1.4803     2.7934     1.9363 H            1    LIG   0.0000
  19 H            1.1925     0.0377     1.1925 H            1    LIG   0.0000
  20 H            1.4196     2.2766    -0.5868 H            1    LIG   0.0000
  21 H            0.5258     0.9819    -1.0245 H            1    LIG   0.0000
  22 H            2.7497     0.7539    -1.8447 H            1    LIG   0.0000
  23 H            3.3240     0.8721    -0.3206 H            1    LIG   0.0000
  24 H            2.4302    -0.4227    -0.7582 H            1    LIG   0.0000
  25 H           -0.4341     2.4676     3.9030 H            1    LIG   0.0000
  26 H           -0.7104     1.5850     6.1183 H            1    LIG   0.0000
  27 H           -1.3860    -0.7038     6.4052 H            1    LIG   0.0000
  28 H           -1.7658    -2.0529     4.4630 H            1    LIG   0.0000
@<TRIPOS>BOND
   1        1        2 1
   2        2        3 1
   3        3        4 1
   4        4        5 1
   5        3        6 1
   6        6        7 1
   7        7        8 ar
   8        8        9 ar
   9        9       10 ar
  10       10       11 ar
  11       11       12 ar
  12       12        7 ar
  13       12       13 1
  14        1       14 1
  15        1       15 1
  16        1       16 1
  17        2       17 1
  18        2       18 1
  19        3       19 1
  20        4       20 1
  21        4       21 1
  22        5       22 1
  23        5       23 1
  24        5       24 1
  25        8       25 1
  26        9       26 1
  27       10       27 1
  28       11       28 1

@<TRIPOS>MOLECULE

  28   28
SMALL
USER_CHARGES
@<TRIPOS>ATOM
   1 C1           3.2696     1.9669     1.2738 C.3          1    LIG   0.0000
   2 C2           1.8776     1.8776     1.8776 C.3          1    LIG   0.0000
   3 C3           1.0000     1.0000     1.0000 C.3          1    LIG   0.0000
   4 C4           1.2925     1.2925    -0.4626 C.3          1    LIG   0.0000
   5 C5           2.5573     0.5614    -0.8824 C.3          1    LIG   0.0000
   6 S6          -0.7417     1.3483     1.3483 S.3          1    LIG   0.0000
   7 C7          -1.1070     0.2204     2.6224 C.ar         1    LIG   0.0000
   8 C8          -2.4431    -0.0185     2.9297 C.ar         1    LIG   0.0000
   9 C9          -2.7517    -0.9168     3.9458 C.ar         1    LIG   0.0000
  10 C10         -1.7266    -1.5579     4.6334 C.ar         1    LIG   0.0000
  11 C11         -0.4108    -1.2775     4.2806 C.ar         1    LIG   0.0000
  12 N12         -0.1329    -0.4079     3.2984 N.ar         1    LIG   1.0000
  13 O13          1.1130    -0.1787     3.0062 O.3          1    LIG  -1.0000
  14 H            3.8470     2.5443     1.8511 H            1    LIG   0.0000
  15 H            3.6669     1.0511     1.2150 H            1    LIG   0.0000
  16 H            3.2109     2.3642     0.3579 H            1    LIG   0.0000
  17 H            1.9363     1.4803     2.7934 H            1    LIG   0.0000
  18 H            1.4803     2.7934     1.9363 H            1    LIG   0.0000
  19 H            1.1925     0.0377     1.1925 H            1    LIG   0.0000
  20 H            1.4196     2.2766    -0.5868 H            1    LIG   0.0000
  21 H            0.5258     0.9819    -1.0245 H            1    LIG   0.0000
  22 H            2.7497     0.7539    -1.8447 H            1    LIG   0.0000
  23 H            3.3240     0.8721    -0.3206 H            1    LIG   0.0000
  24 H            2.4302    -0.4227    -0.7582 H            1    LIG   0.0000
  25 H           -3.1707     0.4488     2.4275 H            1    LIG   0.0000
  26 H           -3.7060    -1.1009     4.1809 H            1    LIG   0.0000
  27 H           -1.9314    -2.2069     5.3661 H            1    LIG   0.0000
  28 H            0.3376    -1.7301     4.7655 H            1    LIG   0.0000
@<TRIPOS>BOND
   1        1        2 1
   2        2        3 1
   3        3        4 1
   4        4        5 1
   5        3        6 1
   6        6        7 1
   7        7        8 ar
   8        8        9 ar
   9        9       10 ar
  10       10       11 ar
  11       11       12 ar
  12       12        7 ar
  13       12       13 1
  14        1       14 1
  15        1       15 1
  16        1       16 1
  17        2       17 1
  18        2       18 1
  19        3       19 1
  20        4       20 1
  21        4       21 1
  22        5       22 1
  23        5       23 1
  24        5       24 1
  25        8       25 1
  26        9       26 1
  27       10       27 1
  28       11       28 1

@<TRIPOS>MOLECULE

  28   28
SMALL
USER_CHARGES
@<TRIPOS>ATOM
   1 C1           3.2696     1.9669     1.2738 C.3          1    LIG   0.0000
   2 C2           1.8776     1.8776     1.8776 C.3          1    LIG   0.0000
   3 C3           1.0000     1.0000     1.0000 C.3          1    LIG   0.0000
   4 C4           1.2925     1.2925    -0.4626 C.3          1    LIG   0.0000
   5 C5           2.5573     0.5614    -0.8824 C.3          1    LIG   0.0000
   6 S6          -0.7417     1.3483     1.3483 S.3          1    LIG   0.0000
   7 C7          -0.9489     2.9453     0.6881 C.ar         1    LIG   0.0000
   8 C8          -0.7142     4.0381     1.5172 C.ar         1    LIG   0.0000
   9 C9          -0.8760     5.3209     1.0047 C.ar         1    LIG   0.0000
  10 C10         -1.2667     5.4897    -0.3195 C.ar         1    LIG   0.0000
  11 C11         -1.4866     4.3585    -1.0984 C.ar         1    LIG   0.0000
  12 N12         -1.3260     3.1296    -0.5864 N.ar         1    LIG   1.0000
  13 O13         -1.5444     2.1037    -1.3545 O.3          1    LIG  -1.0000
  14 H            3.8470     2.5443     1.8511 H            1    LIG   0.0000
  15 H            3.6669     1.0511     1.2150 H            1    LIG   0.0000
  16 H            3.2109     2.3642     0.3579 H            1    LIG   0.0000
  17 H            1.9363     1.4803     2.7934 H            1    LIG   0.0000
  18 H            1.4803     2.7934     1.9363 H            1    LIG   0.0000
  19 H            1.1925     0.0377     1.1925 H            1    LIG   0.0000
  20 H            1.4196     2.2766    -0.5868 H            1    LIG   0.0000
  21 H            0.5258     0.9819    -1.0245 H            1    LIG   0.0000
  22 H            2.7497     0.7539    -1.8447 H            1    LIG   0.0000
  23 H            3.3240     0.8721    -0.3206 H            1    LIG   0.0000
  24 H            2.4302    -0.4227    -0.7582 H            1    LIG   0.0000
  25 H           -0.4334     3.9030     2.4674 H            1    LIG   0.0000
  26 H           -0.7121     6.1183     1.5856 H            1    LIG   0.0000
  27 H           -1.3870     6.4052    -0.7035 H            1    LIG   0.0000
  28 H           -1.7681     4.4630    -2.0522 H            1    LIG   0.0000
@<TRIPOS>BOND
   1        1        2 1
   2        2        3 1
   3        3        4 1
   4        4        5 1
   5        3        6 1
   6        6        7 1
   7        7        8 ar
   8        8        9 ar
   9        9       10 ar
  10       10       11 ar
  11       11       12 ar
  12       12        7 ar
  13       12       13 1
  14        1       14 1
  15        1       15 1
  16        1       16 1
  17        2       17 1
  18        2       18 1
  19        3       19 1
  20        4       20 1
  21        4       21 1
  22        5       22 1
  23        5       23 1
  24        5       24 1
  25        8       25 1
  26        9       26 1
  27       10       27 1
  28       11       28 1

@<TRIPOS>MOLECULE

  28   28
SMALL
USER_CHARGES
@<TRIPOS>ATOM
   1 C1           3.2696     1.9669     1.2738 C.3          1    LIG   0.0000
   2 C2           1.8776     1.8776     1.8776 C.3          1    LIG   0.0000
   3 C3           1.0000     1.0000     1.0000 C.3          1    LIG   0.0000
   4 C4           1.2925     1.2925    -0.4626 C.3          1    LIG   0.0000
   5 C5           2.5573     0.5614    -0.8824 C.3          1    LIG   0.0000
   6 S6          -0.7417     1.3483     1.3483 S.3          1    LIG   0.0000
   7 C7          -0.9489     2.9453     0.6881 C.ar         1    LIG   0.0000
   8 C8          -1.3408     3.0641    -0.6420 C.ar         1    LIG   0.0000
   9 C9          -1.5102     4.3334    -1.1847 C.ar         1    LIG   0.0000
  10 C10         -1.2871     5.4561    -0.3945 C.ar         1    LIG   0.0000
  11 C11         -0.8966     5.2728     0.9279 C.ar         1    LIG   0.0000
  12 N12         -0.7379     4.0410     1.4333 N.ar         1    LIG   1.0000
  13 O13         -0.3709     3.9219     2.6747 O.3          1    LIG  -1.0000
  14 H            3.8470     2.5443     1.8511 H            1    LIG   0.0000
  15 H            3.6669     1.0511     1.2150 H            1    LIG   0.0000
  16 H            3.2109     2.3642     0.3579 H            1    LIG   0.0000
  17 H            1.9363     1.4803     2.7934 H            1    LIG   0.0000
  18 H            1.4803     2.7934     1.9363 H            1    LIG   0.0000
  19 H            1.1925     0.0377     1.1925 H            1    LIG   0.0000
  20 H            1.4196     2.2766    -0.5868 H            1    LIG   0.0000
  21 H            0.5258     0.9819    -1.0245 H            1    LIG   0.0000
  22 H            2.7497     0.7539    -1.8447 H            1    LIG   0.0000
  23 H            3.3240     0.8721    -0.3206 H            1    LIG   0.0000
  24 H            2.4302    -0.4227    -0.7582 H            1    LIG   0.0000
  25 H           -1.4983     2.2488    -1.1992 H            1    LIG   0.0000
  26 H           -1.7911     4.4385    -2.1387 H            1    LIG   0.0000
  27 H           -1.4049     6.3757    -0.7692 H            1    LIG   0.0000
  28 H           -0.7321     6.0698     1.5090 H            1    LIG   0.0000
@<TRIPOS>BOND
   1        1        2 1
   2        2        3 1
   3        3        4 1
   4        4        5 1
   5        3        6 1
   6        6        7 1
   7        7        8 ar
   8        8        9 ar
   9        9       10 ar
  10       10       11 ar
  11       11       12 ar
  12       12        7 ar
  13       12       13 1
  14        1       14 1
  15        1       15 1
  16        1       16 1
  17        2       17 1
  18        2       18 1
  19        3       19 1
  20        4       20 1
  21        4       21 1
  22        5       22 1
  23        5       23 1
  24        5       24 1
  25        8       25 1
  26        9       26 1
  27       10       27 1
  28       11       28 1

@<TRIPOS>MOLECULE

  28   28
SMALL
USER_CHARGES
@<TRIPOS>ATOM
   1 C1           3.2696     1.9669     1.2738 C.3          1    LIG   0.0000
   2 C2           1.8776     1.8776     1.8776 C.3          1    LIG   0.0000
   3 C3           1.0000     1.0000     1.0000 C.3          1    LIG   0.0000
   4 C4           1.2925     1.2925    -0.4626 C.3          1    LIG   0.0000
   5 C5           2.5573     0.5614    -0.8824 C.3          1    LIG   0.0000
   6 S6          -0.7417     1.3483     1.3483 S.3          1    LIG   0.0000
   7 C7          -1.1070     2.6224     0.2204 C.ar         1    LIG   0.0000
   8 C8          -0.1120     3.5502    -0.0727 C.ar         1    LIG   0.0000
   9 C9          -0.3884     4.5748    -0.9718 C.ar         1    LIG   0.0000
  10 C10         -1.6463     4.6548    -1.5598 C.ar         1    LIG   0.0000
  11 C11         -2.5993     3.6981    -1.2266 C.ar         1    LIG   0.0000
  12 N12         -2.3144     2.7177    -0.3571 N.ar         1    LIG   1.0000
  13 O13         -3.2392     1.8479    -0.0775 O.3          1    LIG  -1.0000
  14 H            3.8470     2.5443     1.8511 H            1    LIG   0.0000
  15 H            3.6669     1.0511     1.2150 H            1    LIG   0.0000
  16 H            3.2109     2.3642     0.3579 H            1    LIG   0.0000
  17 H            1.9363     1.4803     2.7934 H            1    LIG   0.0000
  18 H            1.4803     2.7934     1.9363 H            1    LIG   0.0000
  19 H            1.1925     0.0377     1.1925 H            1    LIG   0.0000
  20 H            1.4196     2.2766    -0.5868 H            1    LIG   0.0000
  21 H            0.5258     0.9819    -1.0245 H            1    LIG   0.0000
  22 H            2.7497     0.7539    -1.8447 H            1    LIG   0.0000
  23 H            3.3240     0.8721    -0.3206 H            1    LIG   0.0000
  24 H            2.4302    -0.4227    -0.7582 H            1    LIG   0.0000
  25 H            0.7885     3.4812     0.3568 H            1    LIG   0.0000
  26 H            0.3141     5.2509    -1.1943 H            1    LIG   0.0000
  27 H           -1.8610     5.3849    -2.2086 H            1    LIG   0.0000
  28 H           -3.5085     3.7418    -1.6407 H            1    LIG   0.0000
@<TRIPOS>BOND
   1        1        2 1
   2        2        3 1
   3        3        4 1
   4        4        5 1
   5        3        6 1
   6        6        7 1
   7        7        8 ar
   8        8        9 ar
   9        9       10 ar
  10       10       11 ar
  11       11       12 ar
  12       12        7 ar
  13       12       13 1
  14        1       14 1
  15        1       15 1
  16        1       16 1
  17        2       17 1
  18        2       18 1
  19        3       19 1
  20        4       20 1
  21        4       21 1
  22        5       22 1
  23        5       23 1
  24        5       24 1
  25        8       25 1
  26        9       26 1
  27       10       27 1
  28       11       28 1

@<TRIPOS>MOLECULE

  28   28
SMALL
USER_CHARGES
@<TRIPOS>ATOM
   1 C1           3.2696     1.2738     1.9669 C.3          1    LIG   0.0000
   2 C2           1.8776     1.8776     1.8776 C.3          1    LIG   0.0000
   3 C3           1.0000     1.0000     1.0000 C.3          1    LIG   0.0000
   4 C4           1.2925     1.2925    -0.4626 C.3          1    LIG   0.0000
   5 C5           2.7883     1.4856    -0.6514 C.3          1    LIG   0.0000
   6 S6          -0.7417     1.3483     1.3483 S.3          1    LIG   0.0000
   7 C7          -1.1070     2.6224     0.2204 C.ar         1    LIG   0.0000
   8 C8          -2.1786     2.4465    -0.6500 C.ar         1    LIG   0.0000
   9 C9          -2.4831     3.4553    -1.5578 C.ar         1    LIG   0.0000
  10 C10         -1.7171     4.6160    -1.5807 C.ar         1    LIG   0.0000
  11 C11         -0.6585     4.7331    -0.6861 C.ar         1    LIG   0.0000
  12 N12         -0.3798     3.7495     0.1817 N.ar         1    LIG   1.0000
  13 O13          0.6203     3.9060     0.9972 O.3          1    LIG  -1.0000
  14 H            3.8470     1.8511     2.5443 H            1    LIG   0.0000
  15 H            3.2109     0.3579     2.3642 H            1    LIG   0.0000
  16 H            3.6669     1.2150     1.0511 H            1    LIG   0.0000
  17 H            1.4803     1.9363     2.7934 H            1    LIG   0.0000
  18 H            1.9363     2.7934     1.4803 H            1    LIG   0.0000
  19 H            1.1925     0.0377     1.1925 H            1    LIG   0.0000
  20 H            0.8115     2.1246    -0.7388 H            1    LIG   0.0000
  21 H            0.9819     0.5258    -1.0245 H            1    LIG   0.0000
  22 H            2.9808     1.6781    -1.6136 H            1    LIG   0.0000
  23 H            3.0990     2.2523    -0.0895 H            1    LIG   0.0000
  24 H            3.2693     0.6535    -0.3752 H            1    LIG   0.0000
  25 H           -2.7216     1.6073    -0.6230 H            1    LIG   0.0000
  26 H           -3.2493     3.3466    -2.1912 H            1    LIG   0.0000
  27 H           -1.9231     5.3509    -2.2268 H            1    LIG   0.0000
  28 H           -0.0982     5.5613    -0.6900 H            1    LIG   0.0000
@<TRIPOS>BOND
   1        1        2 1
   2        2        3 1
   3        3        4 1
   4        4        5 1
   5        3        6 1
   6        6        7 1
   7        7        8 ar
   8        8        9 ar
   9        9       10 ar
  10       10       11 ar
  11       11       12 ar
  12       12        7 ar
  13       12       13 1
  14        1       14 1
  15        1       15 1
  16        1       16 1
  17        2       17 1
  18        2       18 1
  19        3       19 1
  20        4       20 1
  21        4       21 1
  22        5       22 1
  23        5       23 1
  24        5       24 1
  25        8       25 1
  26        9       26 1
  27       10       27 1
  28       11       28 1

@<TRIPOS>MOLECULE

  28   28
SMALL
USER_CHARGES
@<TRIPOS>ATOM
   1 C1           3.2696     1.2738     1.9669 C.3          1    LIG   0.0000
   2 C2           1.8776     1.8776     1.8776 C.3          1    LIG   0.0000
   3 C3           1.0000     1.0000     1.0000 C.3          1    LIG   0.0000
   4 C4           1.2925     1.2925    -0.4626 C.3          1    LIG   0.0000
   5 C5           2.7883     1.4856    -0.6514 C.3          1    LIG   0.0000
   6 S6          -0.7417     1.3483     1.3483 S.3          1    LIG   0.0000
   7 C7          -0.7067     3.0228     1.8217 C.ar         1    LIG   0.0000
   8 C8           0.2050     3.8671     1.1951 C.ar         1    LIG   0.0000
   9 C9           0.2458     5.2080     1.5626 C.ar         1    LIG   0.0000
  10 C10         -0.6198     5.6801     2.5437 C.ar         1    LIG   0.0000
  11 C11         -1.5083     4.7874     3.1337 C.ar         1    LIG   0.0000
  12 N12         -1.5326     3.4979     2.7665 N.ar         1    LIG   1.0000
  13 O13         -2.3807     2.7028     3.3481 O.3          1    LIG  -1.0000
  14 H            3.8470     1.8511     2.5443 H            1    LIG   0.0000
  15 H            3.2109     0.3579     2.3642 H            1    LIG   0.0000
  16 H            3.6669     1.2150     1.0511 H            1    LIG   0.0000
  17 H            1.4803     1.9363     2.7934 H            1    LIG   0.0000
  18 H            1.9363     2.7934     1.4803 H            1    LIG   0.0000
  19 H            1.1925     0.0377     1.1925 H            1    LIG   0.0000
  20 H            0.8115     2.1246    -0.7388 H            1    LIG   0.0000
  21 H            0.9819     0.5258    -1.0245 H            1    LIG   0.0000
  22 H            2.9808     1.6781    -1.6136 H            1    LIG   0.0000
  23 H            3.0990     2.2523    -0.0895 H            1    LIG   0.0000
  24 H            3.2693     0.6535    -0.3752 H            1    LIG   0.0000
  25 H            0.8216     3.5150     0.4910 H            1    LIG   0.0000
  26 H            0.8944     5.8296     1.1236 H            1    LIG   0.0000
  27 H           -0.6036     6.6413     2.8190 H            1    LIG   0.0000
  28 H           -2.1370     5.1113     3.8407 H            1    LIG   0.0000
@<TRIPOS>BOND
   1        1        2 1
   2        2        3 1
   3        3        4 1
   4        4        5 1
   5        3        6 1
   6        6        7 1
   7        7        8 ar
   8        8        9 ar
   9        9       10 ar
  10       10       11 ar
  11       11       12 ar
  12       12        7 ar
  13       12       13 1
  14        1       14 1
  15        1       15 1
  16        1       16 1
  17        2       17 1
  18        2       18 1
  19        3       19 1
  20        4       20 1
  21        4       21 1
  22        5       22 1
  23        5       23 1
  24        5       24 1
  25        8       25 1
  26        9       26 1
  27       10       27 1
  28       11       28 1

