@<TRIPOS>MOLECULE
*****
 28 28 0 0 0
SMALL
USER_CHARGES

@<TRIPOS>ATOM
      1 C1          3.2696    1.2738    1.9669 C.3     1  LIG1        0.0000
      2 C2          1.8776    1.8776    1.8776 C.3     1  LIG1        0.0000
      3 C3          1.0000    1.0000    1.0000 C.3     1  LIG1        0.0000
      4 C4          1.2925    1.2925   -0.4626 C.3     1  LIG1        0.0000
      5 C5          2.7883    1.4856   -0.6514 C.3     1  LIG1        0.0000
      6 S6         -0.7417    1.3483    1.3483 S.3     1  LIG1        0.0000
      7 C7         -1.1070    2.6224    0.2204 C.3     1  LIG1        0.0000
      8 C8         -2.1786    2.4465   -0.6500 C.3     1  LIG1        0.0000
      9 C9         -2.4831    3.4553   -1.5578 C.3     1  LIG1        0.0000
     10 C10        -1.7171    4.6160   -1.5807 C.3     1  LIG1        0.0000
     11 C11        -0.6585    4.7331   -0.6861 C.3     1  LIG1        0.0000
     12 N12        -0.3798    3.7495    0.1817 N.3     1  LIG1        1.0000
     13 O13         0.6203    3.9060    0.9972 O.2     1  LIG1       -1.0000
     14 H           3.8470    1.8511    2.5443 H       1  LIG1        0.0000
     15 H           3.2109    0.3579    2.3642 H       1  LIG1        0.0000
     16 H           3.6669    1.2150    1.0511 H       1  LIG1        0.0000
     17 H           1.4803    1.9363    2.7934 H       1  LIG1        0.0000
     18 H           1.9363    2.7934    1.4803 H       1  LIG1        0.0000
     19 H           1.1925    0.0377    1.1925 H       1  LIG1        0.0000
     20 H           0.8115    2.1246   -0.7388 H       1  LIG1        0.0000
     21 H           0.9819    0.5258   -1.0245 H       1  LIG1        0.0000
     22 H           2.9808    1.6781   -1.6136 H       1  LIG1        0.0000
     23 H           3.0990    2.2523   -0.0895 H       1  LIG1        0.0000
     24 H           3.2693    0.6535   -0.3752 H       1  LIG1        0.0000
     25 H          -2.7216    1.6073   -0.6230 H       1  LIG1        0.0000
     26 H          -3.2493    3.3466   -2.1912 H       1  LIG1        0.0000
     27 H          -1.9231    5.3509   -2.2268 H       1  LIG1        0.0000
     28 H          -0.0982    5.5613   -0.6900 H       1  LIG1        0.0000
@<TRIPOS>UNITY_ATOM_ATTR
13 1
charge -1
@<TRIPOS>BOND
     1     1     2    1
     2     2     3    1
     3     3     4    1
     4     4     5    1
     5     3     6    1
     6     6     7    1
     7     7     8   ar
     8     8     9   ar
     9     9    10   ar
    10    10    11   ar
    11    11    12   ar
    12    12     7   ar
    13    12    13    1
    14     1    14    1
    15     1    15    1
    16     1    16    1
    17     2    17    1
    18     2    18    1
    19     3    19    1
    20     4    20    1
    21     4    21    1
    22     5    22    1
    23     5    23    1
    24     5    24    1
    25     8    25    1
    26     9    26    1
    27    10    27    1
    28    11    28    1
