@<TRIPOS>MOLECULE
*****
 28 28 0 0 0
SMALL
USER_CHARGES

@<TRIPOS>ATOM
      1 C1          3.2696    1.9669    1.2738 C.3     1  LIG1        0.0000
      2 C2          1.8776    1.8776    1.8776 C.3     1  LIG1        0.0000
      3 C3          1.0000    1.0000    1.0000 C.3     1  LIG1        0.0000
      4 C4          1.2925    1.2925   -0.4626 C.3     1  LIG1        0.0000
      5 C5          2.5573    0.5614   -0.8824 C.3     1  LIG1        0.0000
      6 S6         -0.7417    1.3483    1.3483 S.3     1  LIG1        0.0000
      7 C7         -1.1070    0.2204    2.6224 C.3     1  LIG1        0.0000
      8 C8         -2.4431   -0.0185    2.9297 C.3     1  LIG1        0.0000
      9 C9         -2.7517   -0.9168    3.9458 C.3     1  LIG1        0.0000
     10 C10        -1.7266   -1.5579    4.6334 C.3     1  LIG1        0.0000
     11 C11        -0.4108   -1.2775    4.2806 C.3     1  LIG1        0.0000
     12 N12        -0.1329   -0.4079    3.2984 N.3     1  LIG1        1.0000
     13 O13         1.1130   -0.1787    3.0062 O.2     1  LIG1       -1.0000
     14 H           3.8470    2.5443    1.8511 H       1  LIG1        0.0000
     15 H           3.6669    1.0511    1.2150 H       1  LIG1        0.0000
     16 H           3.2109    2.3642    0.3579 H       1  LIG1        0.0000
     17 H           1.9363    1.4803    2.7934 H       1  LIG1        0.0000
     18 H           1.4803    2.7934    1.9363 H       1  LIG1        0.0000
     19 H           1.1925    0.0377    1.1925 H       1  LIG1        0.0000
     20 H           1.4196    2.2766   -0.5868 H       1  LIG1        0.0000
     21 H           0.5258    0.9819   -1.0245 H       1  LIG1        0.0000
     22 H           2.7497    0.7539   -1.8447 H       1  LIG1        0.0000
     23 H           3.3240    0.8721   -0.3206 H       1  LIG1        0.0000
     24 H           2.4302   -0.4227   -0.7582 H       1  LIG1        0.0000
     25 H          -3.1707    0.4488    2.4275 H       1  LIG1        0.0000
     26 H          -3.7060   -1.1009    4.1809 H       1  LIG1        0.0000
     27 H          -1.9314   -2.2069    5.3661 H       1  LIG1        0.0000
     28 H           0.3376   -1.7301    4.7655 H       1  LIG1        0.0000
@<TRIPOS>UNITY_ATOM_ATTR
13 1
charge -1
@<TRIPOS>BOND
     1     1     2    1
     2     2     3    1
     3     3     4    1
     4     4     5    1
     5     3     6    1
     6     6     7    1
     7     7     8   ar
     8     8     9   ar
     9     9    10   ar
    10    10    11   ar
    11    11    12   ar
    12    12     7   ar
    13    12    13    1
    14     1    14    1
    15     1    15    1
    16     1    16    1
    17     2    17    1
    18     2    18    1
    19     3    19    1
    20     4    20    1
    21     4    21    1
    22     5    22    1
    23     5    23    1
    24     5    24    1
    25     8    25    1
    26     9    26    1
    27    10    27    1
    28    11    28    1
