@<TRIPOS>MOLECULE
*****
 28 28 0 0 0
SMALL
USER_CHARGES

@<TRIPOS>ATOM
      1 C1          3.2696    1.9669    1.2738 C.3     1  LIG1        0.0000
      2 C2          1.8776    1.8776    1.8776 C.3     1  LIG1        0.0000
      3 C3          1.0000    1.0000    1.0000 C.3     1  LIG1        0.0000
      4 C4          1.2925    1.2925   -0.4626 C.3     1  LIG1        0.0000
      5 C5          2.5573    0.5614   -0.8824 C.3     1  LIG1        0.0000
      6 S6         -0.7417    1.3483    1.3483 S.3     1  LIG1        0.0000
      7 C7         -1.5693    0.2657    0.2657 C.3     1  LIG1        0.0000
      8 C8         -2.9446    0.4111    0.1103 C.3     1  LIG1        0.0000
      9 C9         -3.6207   -0.4467   -0.7509 C.3     1  LIG1        0.0000
     10 C10        -2.9160   -1.4291   -1.4385 C.3     1  LIG1        0.0000
     11 C11        -1.5425   -1.5249   -1.2412 C.3     1  LIG1        0.0000
     12 N12        -0.9080   -0.6891   -0.4063 N.3     1  LIG1        1.0000
     13 O13         0.3765   -0.8194   -0.2550 O.2     1  LIG1       -1.0000
     14 H           3.8470    2.5443    1.8511 H       1  LIG1        0.0000
     15 H           3.6669    1.0511    1.2150 H       1  LIG1        0.0000
     16 H           3.2109    2.3642    0.3579 H       1  LIG1        0.0000
     17 H           1.9363    1.4803    2.7934 H       1  LIG1        0.0000
     18 H           1.4803    2.7934    1.9363 H       1  LIG1        0.0000
     19 H           1.1925    0.0377    1.1925 H       1  LIG1        0.0000
     20 H           1.4196    2.2766   -0.5868 H       1  LIG1        0.0000
     21 H           0.5258    0.9819   -1.0245 H       1  LIG1        0.0000
     22 H           2.7497    0.7539   -1.8447 H       1  LIG1        0.0000
     23 H           3.3240    0.8721   -0.3206 H       1  LIG1        0.0000
     24 H           2.4302   -0.4227   -0.7582 H       1  LIG1        0.0000
     25 H          -3.4394    1.1218    0.6103 H       1  LIG1        0.0000
     26 H          -4.6089   -0.3575   -0.8751 H       1  LIG1        0.0000
     27 H          -3.3869   -2.0534   -2.0618 H       1  LIG1        0.0000
     28 H          -1.0215   -2.2260   -1.7281 H       1  LIG1        0.0000
@<TRIPOS>UNITY_ATOM_ATTR
13 1
charge -1
@<TRIPOS>BOND
     1     1     2    1
     2     2     3    1
     3     3     4    1
     4     4     5    1
     5     3     6    1
     6     6     7    1
     7     7     8   ar
     8     8     9   ar
     9     9    10   ar
    10    10    11   ar
    11    11    12   ar
    12    12     7   ar
    13    12    13    1
    14     1    14    1
    15     1    15    1
    16     1    16    1
    17     2    17    1
    18     2    18    1
    19     3    19    1
    20     4    20    1
    21     4    21    1
    22     5    22    1
    23     5    23    1
    24     5    24    1
    25     8    25    1
    26     9    26    1
    27    10    27    1
    28    11    28    1
