@<TRIPOS>MOLECULE

  23   24
SMALL
USER_CHARGES
@<TRIPOS>ATOM
   1 I1           5.4962    -2.0609     0.9006 I            1    LIG   0.0000
   2 C2           4.4254    -0.1976     0.9602 C.ar         1    LIG   0.0000
   3 C3           5.1295     1.0017     0.9978 C.ar         1    LIG   0.0000
   4 C4           4.4267     2.2016     1.0367 C.ar         1    LIG   0.0000
   5 C5           3.0357     2.2095     1.0378 C.ar         1    LIG   0.0000
   6 C6           2.3500     1.0000     1.0000 C.ar         1    LIG   0.0000
   7 O7           1.0000     1.0000     1.0000 O.3          1    LIG   0.0000
   8 C8           0.4187     2.2181     1.0393 C.ar         1    LIG   0.0000
   9 C9           0.1223     2.8781    -0.1488 C.ar         1    LIG   0.0000
  10 C10         -0.4758     4.1328    -0.0988 C.ar         1    LIG   0.0000
  11 C11         -0.7716     4.7147     1.1302 C.ar         1    LIG   0.0000
  12 C12         -0.4720     4.0473     2.3134 C.ar         1    LIG   0.0000
  13 C13          0.1269     2.7922     2.2723 C.ar         1    LIG   0.0000
  14 C14          3.0346    -0.2101     0.9610 C.ar         1    LIG   0.0000
  15 H            6.1295     1.0012     0.9969 H            1    LIG   0.0000
  16 H            4.9266     3.0673     1.0641 H            1    LIG   0.0000
  17 H            2.5347     3.0744     1.0655 H            1    LIG   0.0000
  18 H            0.3369     2.4551    -1.0292 H            1    LIG   0.0000
  19 H           -0.6933     4.6170    -0.9463 H            1    LIG   0.0000
  20 H           -1.2016     5.6169     1.1630 H            1    LIG   0.0000
  21 H           -0.6871     4.4698     3.1939 H            1    LIG   0.0000
  22 H            0.3452     2.3082     3.1197 H            1    LIG   0.0000
  23 H            2.5346    -1.0757     0.9339 H            1    LIG   0.0000
@<TRIPOS>BOND
   1        1        2 1
   2        2        3 ar
   3        3        4 ar
   4        4        5 ar
   5        5        6 ar
   6        6        7 1
   7        7        8 1
   8        8        9 ar
   9        9       10 ar
  10       10       11 ar
  11       11       12 ar
  12       12       13 ar
  13       13        8 ar
  14        6       14 ar
  15       14        2 ar
  16        3       15 1
  17        4       16 1
  18        5       17 1
  19        9       18 1
  20       10       19 1
  21       11       20 1
  22       12       21 1
  23       13       22 1
  24       14       23 1

@<TRIPOS>MOLECULE

  23   24
SMALL
USER_CHARGES
@<TRIPOS>ATOM
   1 I1           5.4962    -1.0941    -1.2347 I            1    LIG   0.0000
   2 C2           4.4254     0.1814     0.1250 C.ar         1    LIG   0.0000
   3 C3           5.1295     1.0028     0.9996 C.ar         1    LIG   0.0000
   4 C4           4.4267     1.8238     1.8756 C.ar         1    LIG   0.0000
   5 C5           3.0357     1.8285     1.8820 C.ar         1    LIG   0.0000
   6 C6           2.3500     1.0000     1.0000 C.ar         1    LIG   0.0000
   7 O7           1.0000     1.0000     1.0000 O.3          1    LIG   0.0000
   8 C8           0.4187     2.2181     1.0393 C.ar         1    LIG   0.0000
   9 C9          -0.6491     2.4438     1.9017 C.ar         1    LIG   0.0000
  10 C10         -1.2423     3.7014     1.9350 C.ar         1    LIG   0.0000
  11 C11         -0.7667     4.7176     1.1117 C.ar         1    LIG   0.0000
  12 C12          0.3018     4.4830     0.2525 C.ar         1    LIG   0.0000
  13 C13          0.9004     3.2278     0.2125 C.ar         1    LIG   0.0000
  14 C14          3.0346     0.1720     0.1168 C.ar         1    LIG   0.0000
  15 H            6.1295     1.0030     0.9987 H            1    LIG   0.0000
  16 H            4.9266     2.4165     2.5071 H            1    LIG   0.0000
  17 H            2.5347     2.4205     2.5132 H            1    LIG   0.0000
  18 H           -0.9866     1.7099     2.4913 H            1    LIG   0.0000
  19 H           -2.0108     3.8755     2.5507 H            1    LIG   0.0000
  20 H           -1.1952     5.6207     1.1379 H            1    LIG   0.0000
  21 H            0.6398     5.2170    -0.3366 H            1    LIG   0.0000
  22 H            1.6684     3.0533    -0.4037 H            1    LIG   0.0000
  23 H            2.5346    -0.4210    -0.5145 H            1    LIG   0.0000
@<TRIPOS>BOND
   1        1        2 1
   2        2        3 ar
   3        3        4 ar
   4        4        5 ar
   5        5        6 ar
   6        6        7 1
   7        7        8 1
   8        8        9 ar
   9        9       10 ar
  10       10       11 ar
  11       11       12 ar
  12       12       13 ar
  13       13        8 ar
  14        6       14 ar
  15       14        2 ar
  16        3       15 1
  17        4       16 1
  18        5       17 1
  19        9       18 1
  20       10       19 1
  21       11       20 1
  22       12       21 1
  23       13       22 1
  24       14       23 1

@<TRIPOS>MOLECULE

  23   24
SMALL
USER_CHARGES
@<TRIPOS>ATOM
   1 I1           5.4962    -1.0941    -1.2347 I            1    LIG   0.0000
   2 C2           4.4254     0.1814     0.1250 C.ar         1    LIG   0.0000
   3 C3           5.1295     1.0028     0.9996 C.ar         1    LIG   0.0000
   4 C4           4.4267     1.8238     1.8756 C.ar         1    LIG   0.0000
   5 C5           3.0357     1.8285     1.8820 C.ar         1    LIG   0.0000
   6 C6           2.3500     1.0000     1.0000 C.ar         1    LIG   0.0000
   7 O7           1.0000     1.0000     1.0000 O.3          1    LIG   0.0000
   8 C8           0.4187     2.2181     1.0393 C.ar         1    LIG   0.0000
   9 C9           0.1223     2.8781    -0.1488 C.ar         1    LIG   0.0000
  10 C10         -0.4758     4.1328    -0.0988 C.ar         1    LIG   0.0000
  11 C11         -0.7716     4.7147     1.1302 C.ar         1    LIG   0.0000
  12 C12         -0.4720     4.0473     2.3134 C.ar         1    LIG   0.0000
  13 C13          0.1269     2.7922     2.2723 C.ar         1    LIG   0.0000
  14 C14          3.0346     0.1720     0.1168 C.ar         1    LIG   0.0000
  15 H            6.1295     1.0030     0.9987 H            1    LIG   0.0000
  16 H            4.9266     2.4165     2.5071 H            1    LIG   0.0000
  17 H            2.5347     2.4205     2.5132 H            1    LIG   0.0000
  18 H            0.3369     2.4551    -1.0292 H            1    LIG   0.0000
  19 H           -0.6933     4.6170    -0.9463 H            1    LIG   0.0000
  20 H           -1.2016     5.6169     1.1630 H            1    LIG   0.0000
  21 H           -0.6871     4.4698     3.1939 H            1    LIG   0.0000
  22 H            0.3452     2.3082     3.1197 H            1    LIG   0.0000
  23 H            2.5346    -0.4210    -0.5145 H            1    LIG   0.0000
@<TRIPOS>BOND
   1        1        2 1
   2        2        3 ar
   3        3        4 ar
   4        4        5 ar
   5        5        6 ar
   6        6        7 1
   7        7        8 1
   8        8        9 ar
   9        9       10 ar
  10       10       11 ar
  11       11       12 ar
  12       12       13 ar
  13       13        8 ar
  14        6       14 ar
  15       14        2 ar
  16        3       15 1
  17        4       16 1
  18        5       17 1
  19        9       18 1
  20       10       19 1
  21       11       20 1
  22       12       21 1
  23       13       22 1
  24       14       23 1

@<TRIPOS>MOLECULE

  23   24
SMALL
USER_CHARGES
@<TRIPOS>ATOM
   1 I1           5.4962    -1.2347     3.0941 I            1    LIG   0.0000
   2 C2           4.4254     0.1250     1.8186 C.ar         1    LIG   0.0000
   3 C3           5.1295     0.9996     0.9972 C.ar         1    LIG   0.0000
   4 C4           4.4267     1.8756     0.1762 C.ar         1    LIG   0.0000
   5 C5           3.0357     1.8820     0.1715 C.ar         1    LIG   0.0000
   6 C6           2.3500     1.0000     1.0000 C.ar         1    LIG   0.0000
   7 O7           1.0000     1.0000     1.0000 O.3          1    LIG   0.0000
   8 C8           0.4187     2.2181     1.0393 C.ar         1    LIG   0.0000
   9 C9          -0.6491     2.4989     0.1932 C.ar         1    LIG   0.0000
  10 C10         -1.2413     3.7566     0.2400 C.ar         1    LIG   0.0000
  11 C11         -0.7652     4.7178     1.1265 C.ar         1    LIG   0.0000
  12 C12          0.3029     4.4282     1.9692 C.ar         1    LIG   0.0000
  13 C13          0.9014     3.1729     1.9283 C.ar         1    LIG   0.0000
  14 C14          3.0346     0.1168     1.8280 C.ar         1    LIG   0.0000
  15 H            6.1295     0.9987     0.9970 H            1    LIG   0.0000
  16 H            4.9266     2.5071    -0.4165 H            1    LIG   0.0000
  17 H            2.5347     2.5132    -0.4205 H            1    LIG   0.0000
  18 H           -0.9873     1.8042    -0.4417 H            1    LIG   0.0000
  19 H           -2.0095     3.9701    -0.3636 H            1    LIG   0.0000
  20 H           -1.1931     5.6211     1.1578 H            1    LIG   0.0000
  21 H            0.6408     5.1225     2.6046 H            1    LIG   0.0000
  22 H            1.6701     2.9594     2.5313 H            1    LIG   0.0000
  23 H            2.5346    -0.5145     2.4210 H            1    LIG   0.0000
@<TRIPOS>BOND
   1        1        2 1
   2        2        3 ar
   3        3        4 ar
   4        4        5 ar
   5        5        6 ar
   6        6        7 1
   7        7        8 1
   8        8        9 ar
   9        9       10 ar
  10       10       11 ar
  11       11       12 ar
  12       12       13 ar
  13       13        8 ar
  14        6       14 ar
  15       14        2 ar
  16        3       15 1
  17        4       16 1
  18        5       17 1
  19        9       18 1
  20       10       19 1
  21       11       20 1
  22       12       21 1
  23       13       22 1
  24       14       23 1

@<TRIPOS>MOLECULE

  23   24
SMALL
USER_CHARGES
@<TRIPOS>ATOM
   1 I1           5.4962     4.0609     1.0994 I            1    LIG   0.0000
   2 C2           4.4254     2.1976     1.0398 C.ar         1    LIG   0.0000
   3 C3           5.1295     0.9983     1.0022 C.ar         1    LIG   0.0000
   4 C4           4.4267    -0.2016     0.9633 C.ar         1    LIG   0.0000
   5 C5           3.0357    -0.2095     0.9622 C.ar         1    LIG   0.0000
   6 C6           2.3500     1.0000     1.0000 C.ar         1    LIG   0.0000
   7 O7           1.0000     1.0000     1.0000 O.3          1    LIG   0.0000
   8 C8           0.4187     2.2181     1.0393 C.ar         1    LIG   0.0000
   9 C9           0.1223     2.8781    -0.1488 C.ar         1    LIG   0.0000
  10 C10         -0.4758     4.1328    -0.0988 C.ar         1    LIG   0.0000
  11 C11         -0.7716     4.7147     1.1302 C.ar         1    LIG   0.0000
  12 C12         -0.4720     4.0473     2.3134 C.ar         1    LIG   0.0000
  13 C13          0.1269     2.7922     2.2723 C.ar         1    LIG   0.0000
  14 C14          3.0346     2.2101     1.0390 C.ar         1    LIG   0.0000
  15 H            6.1295     0.9988     1.0031 H            1    LIG   0.0000
  16 H            4.9266    -1.0673     0.9359 H            1    LIG   0.0000
  17 H            2.5347    -1.0744     0.9345 H            1    LIG   0.0000
  18 H            0.3369     2.4551    -1.0292 H            1    LIG   0.0000
  19 H           -0.6933     4.6170    -0.9463 H            1    LIG   0.0000
  20 H           -1.2016     5.6169     1.1630 H            1    LIG   0.0000
  21 H           -0.6871     4.4698     3.1939 H            1    LIG   0.0000
  22 H            0.3452     2.3082     3.1197 H            1    LIG   0.0000
  23 H            2.5346     3.0757     1.0661 H            1    LIG   0.0000
@<TRIPOS>BOND
   1        1        2 1
   2        2        3 ar
   3        3        4 ar
   4        4        5 ar
   5        5        6 ar
   6        6        7 1
   7        7        8 1
   8        8        9 ar
   9        9       10 ar
  10       10       11 ar
  11       11       12 ar
  12       12       13 ar
  13       13        8 ar
  14        6       14 ar
  15       14        2 ar
  16        3       15 1
  17        4       16 1
  18        5       17 1
  19        9       18 1
  20       10       19 1
  21       11       20 1
  22       12       21 1
  23       13       22 1
  24       14       23 1

@<TRIPOS>MOLECULE

  23   24
SMALL
USER_CHARGES
@<TRIPOS>ATOM
   1 I1           5.4962     3.0941     3.2347 I            1    LIG   0.0000
   2 C2           4.4254     1.8186     1.8750 C.ar         1    LIG   0.0000
   3 C3           5.1295     0.9972     1.0004 C.ar         1    LIG   0.0000
   4 C4           4.4267     0.1762     0.1244 C.ar         1    LIG   0.0000
   5 C5           3.0357     0.1715     0.1180 C.ar         1    LIG   0.0000
   6 C6           2.3500     1.0000     1.0000 C.ar         1    LIG   0.0000
   7 O7           1.0000     1.0000     1.0000 O.3          1    LIG   0.0000
   8 C8           0.4187     2.2181     1.0393 C.ar         1    LIG   0.0000
   9 C9          -0.6491     2.4438     1.9017 C.ar         1    LIG   0.0000
  10 C10         -1.2423     3.7014     1.9350 C.ar         1    LIG   0.0000
  11 C11         -0.7667     4.7176     1.1117 C.ar         1    LIG   0.0000
  12 C12          0.3018     4.4830     0.2525 C.ar         1    LIG   0.0000
  13 C13          0.9004     3.2278     0.2125 C.ar         1    LIG   0.0000
  14 C14          3.0346     1.8280     1.8832 C.ar         1    LIG   0.0000
  15 H            6.1295     0.9970     1.0013 H            1    LIG   0.0000
  16 H            4.9266    -0.4165    -0.5071 H            1    LIG   0.0000
  17 H            2.5347    -0.4205    -0.5132 H            1    LIG   0.0000
  18 H           -0.9866     1.7099     2.4913 H            1    LIG   0.0000
  19 H           -2.0108     3.8755     2.5507 H            1    LIG   0.0000
  20 H           -1.1952     5.6207     1.1379 H            1    LIG   0.0000
  21 H            0.6398     5.2170    -0.3366 H            1    LIG   0.0000
  22 H            1.6684     3.0533    -0.4037 H            1    LIG   0.0000
  23 H            2.5346     2.4210     2.5145 H            1    LIG   0.0000
@<TRIPOS>BOND
   1        1        2 1
   2        2        3 ar
   3        3        4 ar
   4        4        5 ar
   5        5        6 ar
   6        6        7 1
   7        7        8 1
   8        8        9 ar
   9        9       10 ar
  10       10       11 ar
  11       11       12 ar
  12       12       13 ar
  13       13        8 ar
  14        6       14 ar
  15       14        2 ar
  16        3       15 1
  17        4       16 1
  18        5       17 1
  19        9       18 1
  20       10       19 1
  21       11       20 1
  22       12       21 1
  23       13       22 1
  24       14       23 1

@<TRIPOS>MOLECULE

  23   24
SMALL
USER_CHARGES
@<TRIPOS>ATOM
   1 I1           5.4962     3.0941     3.2347 I            1    LIG   0.0000
   2 C2           4.4254     1.8186     1.8750 C.ar         1    LIG   0.0000
   3 C3           5.1295     0.9972     1.0004 C.ar         1    LIG   0.0000
   4 C4           4.4267     0.1762     0.1244 C.ar         1    LIG   0.0000
   5 C5           3.0357     0.1715     0.1180 C.ar         1    LIG   0.0000
   6 C6           2.3500     1.0000     1.0000 C.ar         1    LIG   0.0000
   7 O7           1.0000     1.0000     1.0000 O.3          1    LIG   0.0000
   8 C8           0.4187     2.2181     1.0393 C.ar         1    LIG   0.0000
   9 C9           0.1223     2.8781    -0.1488 C.ar         1    LIG   0.0000
  10 C10         -0.4758     4.1328    -0.0988 C.ar         1    LIG   0.0000
  11 C11         -0.7716     4.7147     1.1302 C.ar         1    LIG   0.0000
  12 C12         -0.4720     4.0473     2.3134 C.ar         1    LIG   0.0000
  13 C13          0.1269     2.7922     2.2723 C.ar         1    LIG   0.0000
  14 C14          3.0346     1.8280     1.8832 C.ar         1    LIG   0.0000
  15 H            6.1295     0.9970     1.0013 H            1    LIG   0.0000
  16 H            4.9266    -0.4165    -0.5071 H            1    LIG   0.0000
  17 H            2.5347    -0.4205    -0.5132 H            1    LIG   0.0000
  18 H            0.3369     2.4551    -1.0292 H            1    LIG   0.0000
  19 H           -0.6933     4.6170    -0.9463 H            1    LIG   0.0000
  20 H           -1.2016     5.6169     1.1630 H            1    LIG   0.0000
  21 H           -0.6871     4.4698     3.1939 H            1    LIG   0.0000
  22 H            0.3452     2.3082     3.1197 H            1    LIG   0.0000
  23 H            2.5346     2.4210     2.5145 H            1    LIG   0.0000
@<TRIPOS>BOND
   1        1        2 1
   2        2        3 ar
   3        3        4 ar
   4        4        5 ar
   5        5        6 ar
   6        6        7 1
   7        7        8 1
   8        8        9 ar
   9        9       10 ar
  10       10       11 ar
  11       11       12 ar
  12       12       13 ar
  13       13        8 ar
  14        6       14 ar
  15       14        2 ar
  16        3       15 1
  17        4       16 1
  18        5       17 1
  19        9       18 1
  20       10       19 1
  21       11       20 1
  22       12       21 1
  23       13       22 1
  24       14       23 1

@<TRIPOS>MOLECULE

  23   24
SMALL
USER_CHARGES
@<TRIPOS>ATOM
   1 I1           5.4962     3.2347    -1.0941 I            1    LIG   0.0000
   2 C2           4.4254     1.8750     0.1814 C.ar         1    LIG   0.0000
   3 C3           5.1295     1.0004     1.0028 C.ar         1    LIG   0.0000
   4 C4           4.4267     0.1244     1.8238 C.ar         1    LIG   0.0000
   5 C5           3.0357     0.1180     1.8285 C.ar         1    LIG   0.0000
   6 C6           2.3500     1.0000     1.0000 C.ar         1    LIG   0.0000
   7 O7           1.0000     1.0000     1.0000 O.3          1    LIG   0.0000
   8 C8           0.4187     2.2181     1.0393 C.ar         1    LIG   0.0000
   9 C9           0.1223     2.8781    -0.1488 C.ar         1    LIG   0.0000
  10 C10         -0.4758     4.1328    -0.0988 C.ar         1    LIG   0.0000
  11 C11         -0.7716     4.7147     1.1302 C.ar         1    LIG   0.0000
  12 C12         -0.4720     4.0473     2.3134 C.ar         1    LIG   0.0000
  13 C13          0.1269     2.7922     2.2723 C.ar         1    LIG   0.0000
  14 C14          3.0346     1.8832     0.1720 C.ar         1    LIG   0.0000
  15 H            6.1295     1.0013     1.0030 H            1    LIG   0.0000
  16 H            4.9266    -0.5071     2.4165 H            1    LIG   0.0000
  17 H            2.5347    -0.5132     2.4205 H            1    LIG   0.0000
  18 H            0.3369     2.4551    -1.0292 H            1    LIG   0.0000
  19 H           -0.6933     4.6170    -0.9463 H            1    LIG   0.0000
  20 H           -1.2016     5.6169     1.1630 H            1    LIG   0.0000
  21 H           -0.6871     4.4698     3.1939 H            1    LIG   0.0000
  22 H            0.3452     2.3082     3.1197 H            1    LIG   0.0000
  23 H            2.5346     2.5145    -0.4210 H            1    LIG   0.0000
@<TRIPOS>BOND
   1        1        2 1
   2        2        3 ar
   3        3        4 ar
   4        4        5 ar
   5        5        6 ar
   6        6        7 1
   7        7        8 1
   8        8        9 ar
   9        9       10 ar
  10       10       11 ar
  11       11       12 ar
  12       12       13 ar
  13       13        8 ar
  14        6       14 ar
  15       14        2 ar
  16        3       15 1
  17        4       16 1
  18        5       17 1
  19        9       18 1
  20       10       19 1
  21       11       20 1
  22       12       21 1
  23       13       22 1
  24       14       23 1

@<TRIPOS>MOLECULE

  23   24
SMALL
USER_CHARGES
@<TRIPOS>ATOM
   1 I1           5.4962     0.9006     4.0609 I            1    LIG   0.0000
   2 C2           4.4254     0.9602     2.1976 C.ar         1    LIG   0.0000
   3 C3           5.1295     0.9978     0.9983 C.ar         1    LIG   0.0000
   4 C4           4.4267     1.0367    -0.2016 C.ar         1    LIG   0.0000
   5 C5           3.0357     1.0378    -0.2095 C.ar         1    LIG   0.0000
   6 C6           2.3500     1.0000     1.0000 C.ar         1    LIG   0.0000
   7 O7           1.0000     1.0000     1.0000 O.3          1    LIG   0.0000
   8 C8           0.4187     2.2181     1.0393 C.ar         1    LIG   0.0000
   9 C9          -0.9687     2.3190     1.0425 C.ar         1    LIG   0.0000
  10 C10         -1.5588     3.5779     1.0824 C.ar         1    LIG   0.0000
  11 C11         -0.7632     4.7190     1.1188 C.ar         1    LIG   0.0000
  12 C12          0.6234     4.6087     1.1155 C.ar         1    LIG   0.0000
  13 C13          1.2218     3.3533     1.0751 C.ar         1    LIG   0.0000
  14 C14          3.0346     0.9610     2.2101 C.ar         1    LIG   0.0000
  15 H            6.1295     0.9969     0.9988 H            1    LIG   0.0000
  16 H            4.9266     1.0641    -1.0673 H            1    LIG   0.0000
  17 H            2.5347     1.0655    -1.0744 H            1    LIG   0.0000
  18 H           -1.5355     1.4956     1.0165 H            1    LIG   0.0000
  19 H           -2.5552     3.6629     1.0849 H            1    LIG   0.0000
  20 H           -1.1904     5.6227     1.1474 H            1    LIG   0.0000
  21 H            1.1904     5.4320     1.1422 H            1    LIG   0.0000
  22 H            2.2182     3.2681     1.0718 H            1    LIG   0.0000
  23 H            2.5346     0.9339     3.0757 H            1    LIG   0.0000
@<TRIPOS>BOND
   1        1        2 1
   2        2        3 ar
   3        3        4 ar
   4        4        5 ar
   5        5        6 ar
   6        6        7 1
   7        7        8 1
   8        8        9 ar
   9        9       10 ar
  10       10       11 ar
  11       11       12 ar
  12       12       13 ar
  13       13        8 ar
  14        6       14 ar
  15       14        2 ar
  16        3       15 1
  17        4       16 1
  18        5       17 1
  19        9       18 1
  20       10       19 1
  21       11       20 1
  22       12       21 1
  23       13       22 1
  24       14       23 1

@<TRIPOS>MOLECULE

  23   24
SMALL
USER_CHARGES
@<TRIPOS>ATOM
   1 I1           5.4962     0.9006     4.0609 I            1    LIG   0.0000
   2 C2           4.4254     0.9602     2.1976 C.ar         1    LIG   0.0000
   3 C3           5.1295     0.9978     0.9983 C.ar         1    LIG   0.0000
   4 C4           4.4267     1.0367    -0.2016 C.ar         1    LIG   0.0000
   5 C5           3.0357     1.0378    -0.2095 C.ar         1    LIG   0.0000
   6 C6           2.3500     1.0000     1.0000 C.ar         1    LIG   0.0000
   7 O7           1.0000     1.0000     1.0000 O.3          1    LIG   0.0000
   8 C8           0.4187     2.2181     1.0393 C.ar         1    LIG   0.0000
   9 C9           0.1223     2.8781    -0.1488 C.ar         1    LIG   0.0000
  10 C10         -0.4758     4.1328    -0.0988 C.ar         1    LIG   0.0000
  11 C11         -0.7716     4.7147     1.1302 C.ar         1    LIG   0.0000
  12 C12         -0.4720     4.0473     2.3134 C.ar         1    LIG   0.0000
  13 C13          0.1269     2.7922     2.2723 C.ar         1    LIG   0.0000
  14 C14          3.0346     0.9610     2.2101 C.ar         1    LIG   0.0000
  15 H            6.1295     0.9969     0.9988 H            1    LIG   0.0000
  16 H            4.9266     1.0641    -1.0673 H            1    LIG   0.0000
  17 H            2.5347     1.0655    -1.0744 H            1    LIG   0.0000
  18 H            0.3369     2.4551    -1.0292 H            1    LIG   0.0000
  19 H           -0.6933     4.6170    -0.9463 H            1    LIG   0.0000
  20 H           -1.2016     5.6169     1.1630 H            1    LIG   0.0000
  21 H           -0.6871     4.4698     3.1939 H            1    LIG   0.0000
  22 H            0.3452     2.3082     3.1197 H            1    LIG   0.0000
  23 H            2.5346     0.9339     3.0757 H            1    LIG   0.0000
@<TRIPOS>BOND
   1        1        2 1
   2        2        3 ar
   3        3        4 ar
   4        4        5 ar
   5        5        6 ar
   6        6        7 1
   7        7        8 1
   8        8        9 ar
   9        9       10 ar
  10       10       11 ar
  11       11       12 ar
  12       12       13 ar
  13       13        8 ar
  14        6       14 ar
  15       14        2 ar
  16        3       15 1
  17        4       16 1
  18        5       17 1
  19        9       18 1
  20       10       19 1
  21       11       20 1
  22       12       21 1
  23       13       22 1
  24       14       23 1

@<TRIPOS>MOLECULE

  23   24
SMALL
USER_CHARGES
@<TRIPOS>ATOM
   1 I1           5.4962     1.0994    -2.0609 I            1    LIG   0.0000
   2 C2           4.4254     1.0398    -0.1976 C.ar         1    LIG   0.0000
   3 C3           5.1295     1.0022     1.0017 C.ar         1    LIG   0.0000
   4 C4           4.4267     0.9633     2.2016 C.ar         1    LIG   0.0000
   5 C5           3.0357     0.9622     2.2095 C.ar         1    LIG   0.0000
   6 C6           2.3500     1.0000     1.0000 C.ar         1    LIG   0.0000
   7 O7           1.0000     1.0000     1.0000 O.3          1    LIG   0.0000
   8 C8           0.4187     2.2181     1.0393 C.ar         1    LIG   0.0000
   9 C9          -0.9687     2.3190     1.0425 C.ar         1    LIG   0.0000
  10 C10         -1.5588     3.5779     1.0824 C.ar         1    LIG   0.0000
  11 C11         -0.7632     4.7190     1.1188 C.ar         1    LIG   0.0000
  12 C12          0.6234     4.6087     1.1155 C.ar         1    LIG   0.0000
  13 C13          1.2218     3.3533     1.0751 C.ar         1    LIG   0.0000
  14 C14          3.0346     1.0390    -0.2101 C.ar         1    LIG   0.0000
  15 H            6.1295     1.0031     1.0012 H            1    LIG   0.0000
  16 H            4.9266     0.9359     3.0673 H            1    LIG   0.0000
  17 H            2.5347     0.9345     3.0744 H            1    LIG   0.0000
  18 H           -1.5355     1.4956     1.0165 H            1    LIG   0.0000
  19 H           -2.5552     3.6629     1.0849 H            1    LIG   0.0000
  20 H           -1.1904     5.6227     1.1474 H            1    LIG   0.0000
  21 H            1.1904     5.4320     1.1422 H            1    LIG   0.0000
  22 H            2.2182     3.2681     1.0718 H            1    LIG   0.0000
  23 H            2.5346     1.0661    -1.0757 H            1    LIG   0.0000
@<TRIPOS>BOND
   1        1        2 1
   2        2        3 ar
   3        3        4 ar
   4        4        5 ar
   5        5        6 ar
   6        6        7 1
   7        7        8 1
   8        8        9 ar
   9        9       10 ar
  10       10       11 ar
  11       11       12 ar
  12       12       13 ar
  13       13        8 ar
  14        6       14 ar
  15       14        2 ar
  16        3       15 1
  17        4       16 1
  18        5       17 1
  19        9       18 1
  20       10       19 1
  21       11       20 1
  22       12       21 1
  23       13       22 1
  24       14       23 1

@<TRIPOS>MOLECULE

  23   24
SMALL
USER_CHARGES
@<TRIPOS>ATOM
   1 I1           5.4962     1.0994    -2.0609 I            1    LIG   0.0000
   2 C2           4.4254     1.0398    -0.1976 C.ar         1    LIG   0.0000
   3 C3           5.1295     1.0022     1.0017 C.ar         1    LIG   0.0000
   4 C4           4.4267     0.9633     2.2016 C.ar         1    LIG   0.0000
   5 C5           3.0357     0.9622     2.2095 C.ar         1    LIG   0.0000
   6 C6           2.3500     1.0000     1.0000 C.ar         1    LIG   0.0000
   7 O7           1.0000     1.0000     1.0000 O.3          1    LIG   0.0000
   8 C8           0.4187     2.2181     1.0393 C.ar         1    LIG   0.0000
   9 C9           0.1223     2.8781    -0.1488 C.ar         1    LIG   0.0000
  10 C10         -0.4758     4.1328    -0.0988 C.ar         1    LIG   0.0000
  11 C11         -0.7716     4.7147     1.1302 C.ar         1    LIG   0.0000
  12 C12         -0.4720     4.0473     2.3134 C.ar         1    LIG   0.0000
  13 C13          0.1269     2.7922     2.2723 C.ar         1    LIG   0.0000
  14 C14          3.0346     1.0390    -0.2101 C.ar         1    LIG   0.0000
  15 H            6.1295     1.0031     1.0012 H            1    LIG   0.0000
  16 H            4.9266     0.9359     3.0673 H            1    LIG   0.0000
  17 H            2.5347     0.9345     3.0744 H            1    LIG   0.0000
  18 H            0.3369     2.4551    -1.0292 H            1    LIG   0.0000
  19 H           -0.6933     4.6170    -0.9463 H            1    LIG   0.0000
  20 H           -1.2016     5.6169     1.1630 H            1    LIG   0.0000
  21 H           -0.6871     4.4698     3.1939 H            1    LIG   0.0000
  22 H            0.3452     2.3082     3.1197 H            1    LIG   0.0000
  23 H            2.5346     1.0661    -1.0757 H            1    LIG   0.0000
@<TRIPOS>BOND
   1        1        2 1
   2        2        3 ar
   3        3        4 ar
   4        4        5 ar
   5        5        6 ar
   6        6        7 1
   7        7        8 1
   8        8        9 ar
   9        9       10 ar
  10       10       11 ar
  11       11       12 ar
  12       12       13 ar
  13       13        8 ar
  14        6       14 ar
  15       14        2 ar
  16        3       15 1
  17        4       16 1
  18        5       17 1
  19        9       18 1
  20       10       19 1
  21       11       20 1
  22       12       21 1
  23       13       22 1
  24       14       23 1

