@<TRIPOS>MOLECULE
*****
 23 24 0 0 0
SMALL
USER_CHARGES

@<TRIPOS>ATOM
      1 I1          5.4962   -2.0609    0.9006 I       1  LIG1        0.0000
      2 C2          4.4254   -0.1976    0.9602 C.ar    1  LIG1        0.0000
      3 C3          5.1295    1.0017    0.9978 C.ar    1  LIG1        0.0000
      4 C4          4.4267    2.2016    1.0367 C.ar    1  LIG1        0.0000
      5 C5          3.0357    2.2095    1.0378 C.ar    1  LIG1        0.0000
      6 C6          2.3500    1.0000    1.0000 C.ar    1  LIG1        0.0000
      7 O7          1.0000    1.0000    1.0000 O.3     1  LIG1        0.0000
      8 C8          0.4187    2.2181    1.0393 C.ar    1  LIG1        0.0000
      9 C9          0.1223    2.8781   -0.1488 C.ar    1  LIG1        0.0000
     10 C10        -0.4758    4.1328   -0.0988 C.ar    1  LIG1        0.0000
     11 C11        -0.7716    4.7147    1.1302 C.ar    1  LIG1        0.0000
     12 C12        -0.4720    4.0473    2.3134 C.ar    1  LIG1        0.0000
     13 C13         0.1269    2.7922    2.2723 C.ar    1  LIG1        0.0000
     14 C14         3.0346   -0.2101    0.9610 C.ar    1  LIG1        0.0000
     15 H           6.1295    1.0012    0.9969 H       1  LIG1        0.0000
     16 H           4.9266    3.0673    1.0641 H       1  LIG1        0.0000
     17 H           2.5347    3.0744    1.0655 H       1  LIG1        0.0000
     18 H           0.3369    2.4551   -1.0292 H       1  LIG1        0.0000
     19 H          -0.6933    4.6170   -0.9463 H       1  LIG1        0.0000
     20 H          -1.2016    5.6169    1.1630 H       1  LIG1        0.0000
     21 H          -0.6871    4.4698    3.1939 H       1  LIG1        0.0000
     22 H           0.3452    2.3082    3.1197 H       1  LIG1        0.0000
     23 H           2.5346   -1.0757    0.9339 H       1  LIG1        0.0000
@<TRIPOS>BOND
     1     1     2    1
     2     2     3   ar
     3     3     4   ar
     4     4     5   ar
     5     5     6   ar
     6     6     7    1
     7     7     8    1
     8     8     9   ar
     9     9    10   ar
    10    10    11   ar
    11    11    12   ar
    12    12    13   ar
    13    13     8   ar
    14     6    14   ar
    15    14     2   ar
    16     3    15    1
    17     4    16    1
    18     5    17    1
    19     9    18    1
    20    10    19    1
    21    11    20    1
    22    12    21    1
    23    13    22    1
    24    14    23    1
