@<TRIPOS>MOLECULE
*****
 23 24 0 0 0
SMALL
USER_CHARGES

@<TRIPOS>ATOM
      1 I1          5.4962    1.0994   -2.0609 I       1  LIG1        0.0000
      2 C2          4.4254    1.0398   -0.1976 C.ar    1  LIG1        0.0000
      3 C3          5.1295    1.0022    1.0017 C.ar    1  LIG1        0.0000
      4 C4          4.4267    0.9633    2.2016 C.ar    1  LIG1        0.0000
      5 C5          3.0357    0.9622    2.2095 C.ar    1  LIG1        0.0000
      6 C6          2.3500    1.0000    1.0000 C.ar    1  LIG1        0.0000
      7 O7          1.0000    1.0000    1.0000 O.3     1  LIG1        0.0000
      8 C8          0.4187    2.2181    1.0393 C.ar    1  LIG1        0.0000
      9 C9         -0.9687    2.3190    1.0425 C.ar    1  LIG1        0.0000
     10 C10        -1.5588    3.5779    1.0824 C.ar    1  LIG1        0.0000
     11 C11        -0.7632    4.7190    1.1188 C.ar    1  LIG1        0.0000
     12 C12         0.6234    4.6087    1.1155 C.ar    1  LIG1        0.0000
     13 C13         1.2218    3.3533    1.0751 C.ar    1  LIG1        0.0000
     14 C14         3.0346    1.0390   -0.2101 C.ar    1  LIG1        0.0000
     15 H           6.1295    1.0031    1.0012 H       1  LIG1        0.0000
     16 H           4.9266    0.9359    3.0673 H       1  LIG1        0.0000
     17 H           2.5347    0.9345    3.0744 H       1  LIG1        0.0000
     18 H          -1.5355    1.4956    1.0165 H       1  LIG1        0.0000
     19 H          -2.5552    3.6629    1.0849 H       1  LIG1        0.0000
     20 H          -1.1904    5.6227    1.1474 H       1  LIG1        0.0000
     21 H           1.1904    5.4320    1.1422 H       1  LIG1        0.0000
     22 H           2.2182    3.2681    1.0718 H       1  LIG1        0.0000
     23 H           2.5346    1.0661   -1.0757 H       1  LIG1        0.0000
@<TRIPOS>BOND
     1     1     2    1
     2     2     3   ar
     3     3     4   ar
     4     4     5   ar
     5     5     6   ar
     6     6     7    1
     7     7     8    1
     8     8     9   ar
     9     9    10   ar
    10    10    11   ar
    11    11    12   ar
    12    12    13   ar
    13    13     8   ar
    14     6    14   ar
    15    14     2   ar
    16     3    15    1
    17     4    16    1
    18     5    17    1
    19     9    18    1
    20    10    19    1
    21    11    20    1
    22    12    21    1
    23    13    22    1
    24    14    23    1
