@<TRIPOS>MOLECULE
*****
 23 24 0 0 0
SMALL
USER_CHARGES

@<TRIPOS>ATOM
      1 I1          5.4962   -1.2347    3.0941 I       1  LIG1        0.0000
      2 C2          4.4254    0.1250    1.8186 C.ar    1  LIG1        0.0000
      3 C3          5.1295    0.9996    0.9972 C.ar    1  LIG1        0.0000
      4 C4          4.4267    1.8756    0.1762 C.ar    1  LIG1        0.0000
      5 C5          3.0357    1.8820    0.1715 C.ar    1  LIG1        0.0000
      6 C6          2.3500    1.0000    1.0000 C.ar    1  LIG1        0.0000
      7 O7          1.0000    1.0000    1.0000 O.3     1  LIG1        0.0000
      8 C8          0.4187    2.2181    1.0393 C.ar    1  LIG1        0.0000
      9 C9         -0.6491    2.4989    0.1932 C.ar    1  LIG1        0.0000
     10 C10        -1.2413    3.7566    0.2400 C.ar    1  LIG1        0.0000
     11 C11        -0.7652    4.7178    1.1265 C.ar    1  LIG1        0.0000
     12 C12         0.3029    4.4282    1.9692 C.ar    1  LIG1        0.0000
     13 C13         0.9014    3.1729    1.9283 C.ar    1  LIG1        0.0000
     14 C14         3.0346    0.1168    1.8280 C.ar    1  LIG1        0.0000
     15 H           6.1295    0.9987    0.9970 H       1  LIG1        0.0000
     16 H           4.9266    2.5071   -0.4165 H       1  LIG1        0.0000
     17 H           2.5347    2.5132   -0.4205 H       1  LIG1        0.0000
     18 H          -0.9873    1.8042   -0.4417 H       1  LIG1        0.0000
     19 H          -2.0095    3.9701   -0.3636 H       1  LIG1        0.0000
     20 H          -1.1931    5.6211    1.1578 H       1  LIG1        0.0000
     21 H           0.6408    5.1225    2.6046 H       1  LIG1        0.0000
     22 H           1.6701    2.9594    2.5313 H       1  LIG1        0.0000
     23 H           2.5346   -0.5145    2.4210 H       1  LIG1        0.0000
@<TRIPOS>BOND
     1     1     2    1
     2     2     3   ar
     3     3     4   ar
     4     4     5   ar
     5     5     6   ar
     6     6     7    1
     7     7     8    1
     8     8     9   ar
     9     9    10   ar
    10    10    11   ar
    11    11    12   ar
    12    12    13   ar
    13    13     8   ar
    14     6    14   ar
    15    14     2   ar
    16     3    15    1
    17     4    16    1
    18     5    17    1
    19     9    18    1
    20    10    19    1
    21    11    20    1
    22    12    21    1
    23    13    22    1
    24    14    23    1
