@<TRIPOS>MOLECULE
*****
 23 24 0 0 0
SMALL
USER_CHARGES

@<TRIPOS>ATOM
      1 I1          5.4962    3.0941    3.2347 I       1  LIG1        0.0000
      2 C2          4.4254    1.8186    1.8750 C.ar    1  LIG1        0.0000
      3 C3          5.1295    0.9972    1.0004 C.ar    1  LIG1        0.0000
      4 C4          4.4267    0.1762    0.1244 C.ar    1  LIG1        0.0000
      5 C5          3.0357    0.1715    0.1180 C.ar    1  LIG1        0.0000
      6 C6          2.3500    1.0000    1.0000 C.ar    1  LIG1        0.0000
      7 O7          1.0000    1.0000    1.0000 O.3     1  LIG1        0.0000
      8 C8          0.4187    2.2181    1.0393 C.ar    1  LIG1        0.0000
      9 C9         -0.6491    2.4438    1.9017 C.ar    1  LIG1        0.0000
     10 C10        -1.2423    3.7014    1.9350 C.ar    1  LIG1        0.0000
     11 C11        -0.7667    4.7176    1.1117 C.ar    1  LIG1        0.0000
     12 C12         0.3018    4.4830    0.2525 C.ar    1  LIG1        0.0000
     13 C13         0.9004    3.2278    0.2125 C.ar    1  LIG1        0.0000
     14 C14         3.0346    1.8280    1.8832 C.ar    1  LIG1        0.0000
     15 H           6.1295    0.9970    1.0013 H       1  LIG1        0.0000
     16 H           4.9266   -0.4165   -0.5071 H       1  LIG1        0.0000
     17 H           2.5347   -0.4205   -0.5132 H       1  LIG1        0.0000
     18 H          -0.9866    1.7099    2.4913 H       1  LIG1        0.0000
     19 H          -2.0108    3.8755    2.5507 H       1  LIG1        0.0000
     20 H          -1.1952    5.6207    1.1379 H       1  LIG1        0.0000
     21 H           0.6398    5.2170   -0.3366 H       1  LIG1        0.0000
     22 H           1.6684    3.0533   -0.4037 H       1  LIG1        0.0000
     23 H           2.5346    2.4210    2.5145 H       1  LIG1        0.0000
@<TRIPOS>BOND
     1     1     2    1
     2     2     3   ar
     3     3     4   ar
     4     4     5   ar
     5     5     6   ar
     6     6     7    1
     7     7     8    1
     8     8     9   ar
     9     9    10   ar
    10    10    11   ar
    11    11    12   ar
    12    12    13   ar
    13    13     8   ar
    14     6    14   ar
    15    14     2   ar
    16     3    15    1
    17     4    16    1
    18     5    17    1
    19     9    18    1
    20    10    19    1
    21    11    20    1
    22    12    21    1
    23    13    22    1
    24    14    23    1
