@<TRIPOS>MOLECULE

  30   32
SMALL
USER_CHARGES
@<TRIPOS>ATOM
   1 C1           5.9446     0.7464    -0.4102 C.3          1    LIG   0.0000
   2 C2           4.6059     0.7641     0.3099 C.3          1    LIG   0.0000
   3 C3           3.7726     1.9583    -0.1174 C.3          1    LIG   0.0000
   4 C4           2.3544     1.4302    -0.0670 C.ar         1    LIG   0.0000
   5 C5           1.1347     2.0897    -0.0135 C.ar         1    LIG   0.0000
   6 N6           0.0049     1.3645     0.0123 N.ar         1    LIG   0.0000
   7 C7           0.0053     0.0228     0.0033 C.ar         1    LIG   0.0000
   8 C8           1.2211    -0.6500    -0.0324 C.ar         1    LIG   0.0000
   9 C9           2.4156     0.0622    -0.0593 C.ar         1    LIG   0.0000
  10 N10          3.7494    -0.3433    -0.1139 N.am         1    LIG   0.0000
  11 C11          4.2049    -1.6041    -0.5347 C.2          1    LIG   0.0000
  12 O12          5.3803    -1.8458    -0.5414 O.2          1    LIG   0.0000
  13 C13          3.2556    -2.6122    -0.9603 C.2          1    LIG   0.0000
  14 C14          2.3433    -2.4856    -2.0331 C.2          1    LIG   0.0000
  15 C15          1.6411    -3.6527    -2.0901 C.2          1    LIG   0.0000
  16 N16          2.1001    -4.4650    -1.0940 N.pl3        1    LIG   0.0000
  17 C17          3.0878    -3.8401    -0.3927 C.2          1    LIG   0.0000
  18 H            4.7345     0.7558     1.3016 H            1    LIG   0.0000
  19 H            1.7605    -5.3866    -0.9057 H            1    LIG   0.0000
  20 H            6.5020     1.5150    -0.0965 H            1    LIG   0.0000
  21 H            6.4183    -0.1117    -0.2121 H            1    LIG   0.0000
  22 H            5.7940     0.8242    -1.3957 H            1    LIG   0.0000
  23 H            3.8926     2.7234     0.5152 H            1    LIG   0.0000
  24 H            4.0134     2.2502    -1.0431 H            1    LIG   0.0000
  25 H            1.0976     3.0888     0.0056 H            1    LIG   0.0000
  26 H           -0.8558    -0.4853     0.0220 H            1    LIG   0.0000
  27 H            1.2371    -1.6499    -0.0387 H            1    LIG   0.0000
  28 H            2.2342    -1.6935    -2.6336 H            1    LIG   0.0000
  29 H            0.9185    -3.8741    -2.7450 H            1    LIG   0.0000
  30 H            3.5918    -4.2108     0.3874 H            1    LIG   0.0000
@<TRIPOS>BOND
   1        1        2 1
   2        2        3 1
   3        3        4 1
   4        4        5 ar
   5        5        6 ar
   6        6        7 ar
   7        7        8 ar
   8        8        9 ar
   9        9        4 ar
  10        9       10 1
  11       10        2 1
  12       10       11 am
  13       11       12 2
  14       11       13 1
  15       13       14 1
  16       14       15 2
  17       15       16 1
  18       16       17 1
  19       17       13 2
  20        2       18 1
  21       16       19 1
  22        1       20 1
  23        1       21 1
  24        1       22 1
  25        3       23 1
  26        3       24 1
  27        5       25 1
  28        7       26 1
  29        8       27 1
  30       14       28 1
  31       15       29 1
  32       17       30 1

@<TRIPOS>MOLECULE

  30   32
SMALL
USER_CHARGES
@<TRIPOS>ATOM
   1 C1           5.9446     0.7464    -0.4102 C.3          1    LIG   0.0000
   2 C2           4.6059     0.7641     0.3099 C.3          1    LIG   0.0000
   3 C3           3.7726     1.9583    -0.1174 C.3          1    LIG   0.0000
   4 C4           2.3544     1.4302    -0.0670 C.ar         1    LIG   0.0000
   5 C5           1.1347     2.0897    -0.0135 C.ar         1    LIG   0.0000
   6 N6           0.0049     1.3645     0.0123 N.ar         1    LIG   0.0000
   7 C7           0.0053     0.0228     0.0033 C.ar         1    LIG   0.0000
   8 C8           1.2211    -0.6500    -0.0324 C.ar         1    LIG   0.0000
   9 C9           2.4156     0.0622    -0.0593 C.ar         1    LIG   0.0000
  10 N10          3.7494    -0.3433    -0.1139 N.am         1    LIG   0.0000
  11 C11          4.2049    -1.6041    -0.5347 C.2          1    LIG   0.0000
  12 O12          5.3803    -1.8458    -0.5414 O.2          1    LIG   0.0000
  13 C13          3.2556    -2.6122    -0.9603 C.2          1    LIG   0.0000
  14 C14          3.0868    -3.8870    -0.3724 C.2          1    LIG   0.0000
  15 C15          2.0996    -4.5139    -1.0730 C.2          1    LIG   0.0000
  16 N16          1.6775    -3.6624    -2.0525 N.pl3        1    LIG   0.0000
  17 C17          2.3780    -2.4945    -1.9968 C.2          1    LIG   0.0000
  18 H            4.7345     0.7558     1.3016 H            1    LIG   0.0000
  19 H            0.9576    -3.8661    -2.7160 H            1    LIG   0.0000
  20 H            6.5020     1.5150    -0.0965 H            1    LIG   0.0000
  21 H            6.4183    -0.1117    -0.2121 H            1    LIG   0.0000
  22 H            5.7940     0.8242    -1.3957 H            1    LIG   0.0000
  23 H            3.8926     2.7234     0.5152 H            1    LIG   0.0000
  24 H            4.0134     2.2502    -1.0431 H            1    LIG   0.0000
  25 H            1.0976     3.0888     0.0056 H            1    LIG   0.0000
  26 H           -0.8558    -0.4853     0.0220 H            1    LIG   0.0000
  27 H            1.2371    -1.6499    -0.0387 H            1    LIG   0.0000
  28 H            3.5933    -4.2569     0.4064 H            1    LIG   0.0000
  29 H            1.7475    -5.4338    -0.9000 H            1    LIG   0.0000
  30 H            2.2692    -1.7041    -2.5996 H            1    LIG   0.0000
@<TRIPOS>BOND
   1        1        2 1
   2        2        3 1
   3        3        4 1
   4        4        5 ar
   5        5        6 ar
   6        6        7 ar
   7        7        8 ar
   8        8        9 ar
   9        9        4 ar
  10        9       10 1
  11       10        2 1
  12       10       11 am
  13       11       12 2
  14       11       13 1
  15       13       14 1
  16       14       15 2
  17       15       16 1
  18       16       17 1
  19       17       13 2
  20        2       18 1
  21       16       19 1
  22        1       20 1
  23        1       21 1
  24        1       22 1
  25        3       23 1
  26        3       24 1
  27        5       25 1
  28        7       26 1
  29        8       27 1
  30       14       28 1
  31       15       29 1
  32       17       30 1

@<TRIPOS>MOLECULE

  30   32
SMALL
USER_CHARGES
@<TRIPOS>ATOM
   1 C1           5.9446     0.7464    -0.4102 C.3          1    LIG   0.0000
   2 C2           4.6059     0.7641     0.3099 C.3          1    LIG   0.0000
   3 C3           3.7726     1.9583    -0.1174 C.3          1    LIG   0.0000
   4 C4           2.3544     1.4302    -0.0670 C.ar         1    LIG   0.0000
   5 C5           1.1347     2.0897    -0.0135 C.ar         1    LIG   0.0000
   6 N6           0.0049     1.3645     0.0123 N.ar         1    LIG   0.0000
   7 C7           0.0053     0.0228     0.0033 C.ar         1    LIG   0.0000
   8 C8           1.2211    -0.6500    -0.0324 C.ar         1    LIG   0.0000
   9 C9           2.4156     0.0622    -0.0593 C.ar         1    LIG   0.0000
  10 N10          3.7494    -0.3433    -0.1139 N.am         1    LIG   0.0000
  11 C11          4.2049    -1.6041    -0.5347 C.2          1    LIG   0.0000
  12 O12          3.5831    -2.2245    -1.3523 O.2          1    LIG   0.0000
  13 C13          5.4251    -2.1550     0.0186 C.2          1    LIG   0.0000
  14 C14          5.6616    -2.4276     1.3857 C.2          1    LIG   0.0000
  15 C15          6.9251    -2.9322     1.4718 C.2          1    LIG   0.0000
  16 N16          7.4467    -2.9688     0.2111 N.pl3        1    LIG   0.0000
  17 C17          6.5398    -2.4940    -0.6889 C.2          1    LIG   0.0000
  18 H            4.7345     0.7558     1.3016 H            1    LIG   0.0000
  19 H            8.3628    -3.2969    -0.0192 H            1    LIG   0.0000
  20 H            6.5020     1.5150    -0.0965 H            1    LIG   0.0000
  21 H            6.4183    -0.1117    -0.2121 H            1    LIG   0.0000
  22 H            5.7940     0.8242    -1.3957 H            1    LIG   0.0000
  23 H            3.8926     2.7234     0.5152 H            1    LIG   0.0000
  24 H            4.0134     2.2502    -1.0431 H            1    LIG   0.0000
  25 H            1.0976     3.0888     0.0056 H            1    LIG   0.0000
  26 H           -0.8558    -0.4853     0.0220 H            1    LIG   0.0000
  27 H            1.2371    -1.6499    -0.0387 H            1    LIG   0.0000
  28 H            5.0254    -2.2789     2.1427 H            1    LIG   0.0000
  29 H            7.3873    -3.2236     2.3093 H            1    LIG   0.0000
  30 H            6.6676    -2.4105    -1.6772 H            1    LIG   0.0000
@<TRIPOS>BOND
   1        1        2 1
   2        2        3 1
   3        3        4 1
   4        4        5 ar
   5        5        6 ar
   6        6        7 ar
   7        7        8 ar
   8        8        9 ar
   9        9        4 ar
  10        9       10 1
  11       10        2 1
  12       10       11 am
  13       11       12 2
  14       11       13 1
  15       13       14 1
  16       14       15 2
  17       15       16 1
  18       16       17 1
  19       17       13 2
  20        2       18 1
  21       16       19 1
  22        1       20 1
  23        1       21 1
  24        1       22 1
  25        3       23 1
  26        3       24 1
  27        5       25 1
  28        7       26 1
  29        8       27 1
  30       14       28 1
  31       15       29 1
  32       17       30 1

@<TRIPOS>MOLECULE

  30   32
SMALL
USER_CHARGES
@<TRIPOS>ATOM
   1 C1           5.9446     0.7464    -0.4102 C.3          1    LIG   0.0000
   2 C2           4.6059     0.7641     0.3099 C.3          1    LIG   0.0000
   3 C3           3.7726     1.9583    -0.1174 C.3          1    LIG   0.0000
   4 C4           2.3544     1.4302    -0.0670 C.ar         1    LIG   0.0000
   5 C5           1.1347     2.0897    -0.0135 C.ar         1    LIG   0.0000
   6 N6           0.0049     1.3645     0.0123 N.ar         1    LIG   0.0000
   7 C7           0.0053     0.0228     0.0033 C.ar         1    LIG   0.0000
   8 C8           1.2211    -0.6500    -0.0324 C.ar         1    LIG   0.0000
   9 C9           2.4156     0.0622    -0.0593 C.ar         1    LIG   0.0000
  10 N10          3.7494    -0.3433    -0.1139 N.am         1    LIG   0.0000
  11 C11          4.2049    -1.6041    -0.5347 C.2          1    LIG   0.0000
  12 O12          3.5831    -2.2245    -1.3523 O.2          1    LIG   0.0000
  13 C13          5.4251    -2.1550     0.0186 C.2          1    LIG   0.0000
  14 C14          6.5784    -2.5100    -0.7184 C.2          1    LIG   0.0000
  15 C15          7.4865    -2.9858     0.1801 C.2          1    LIG   0.0000
  16 N16          6.9174    -2.9278     1.4193 N.pl3        1    LIG   0.0000
  17 C17          5.6542    -2.4228     1.3354 C.2          1    LIG   0.0000
  18 H            4.7345     0.7558     1.3016 H            1    LIG   0.0000
  19 H            7.3633    -3.2146     2.2672 H            1    LIG   0.0000
  20 H            6.5020     1.5150    -0.0965 H            1    LIG   0.0000
  21 H            6.4183    -0.1117    -0.2121 H            1    LIG   0.0000
  22 H            5.7940     0.8242    -1.3957 H            1    LIG   0.0000
  23 H            3.8926     2.7234     0.5152 H            1    LIG   0.0000
  24 H            4.0134     2.2502    -1.0431 H            1    LIG   0.0000
  25 H            1.0976     3.0888     0.0056 H            1    LIG   0.0000
  26 H           -0.8558    -0.4853     0.0220 H            1    LIG   0.0000
  27 H            1.2371    -1.6499    -0.0387 H            1    LIG   0.0000
  28 H            6.7036    -2.4279    -1.7071 H            1    LIG   0.0000
  29 H            8.4057    -3.3181    -0.0311 H            1    LIG   0.0000
  30 H            5.0184    -2.2769     2.0933 H            1    LIG   0.0000
@<TRIPOS>BOND
   1        1        2 1
   2        2        3 1
   3        3        4 1
   4        4        5 ar
   5        5        6 ar
   6        6        7 ar
   7        7        8 ar
   8        8        9 ar
   9        9        4 ar
  10        9       10 1
  11       10        2 1
  12       10       11 am
  13       11       12 2
  14       11       13 1
  15       13       14 1
  16       14       15 2
  17       15       16 1
  18       16       17 1
  19       17       13 2
  20        2       18 1
  21       16       19 1
  22        1       20 1
  23        1       21 1
  24        1       22 1
  25        3       23 1
  26        3       24 1
  27        5       25 1
  28        7       26 1
  29        8       27 1
  30       14       28 1
  31       15       29 1
  32       17       30 1

@<TRIPOS>MOLECULE

  30   32
SMALL
USER_CHARGES
@<TRIPOS>ATOM
   1 C1           5.9446     0.7464    -0.4102 C.3          1    LIG   0.0000
   2 C2           4.6059     0.7641     0.3099 C.3          1    LIG   0.0000
   3 C3           3.7726     1.9583    -0.1174 C.3          1    LIG   0.0000
   4 C4           2.3544     1.4302    -0.0670 C.ar         1    LIG   0.0000
   5 C5           1.1347     2.0897    -0.0135 C.ar         1    LIG   0.0000
   6 N6           0.0049     1.3645     0.0123 N.ar         1    LIG   0.0000
   7 C7           0.0053     0.0228     0.0033 C.ar         1    LIG   0.0000
   8 C8           1.2211    -0.6500    -0.0324 C.ar         1    LIG   0.0000
   9 C9           2.4156     0.0622    -0.0593 C.ar         1    LIG   0.0000
  10 N10          3.7494    -0.3433    -0.1139 N.am         1    LIG   0.0000
  11 C11          4.2049    -1.6041    -0.5347 C.2          1    LIG   0.0000
  12 O12          3.5168    -2.5743    -0.3759 O.2          1    LIG   0.0000
  13 C13          5.5052    -1.7328    -1.1601 C.2          1    LIG   0.0000
  14 C14          6.5790    -2.5159    -0.6774 C.2          1    LIG   0.0000
  15 C15          7.6078    -2.3549    -1.5570 C.2          1    LIG   0.0000
  16 N16          7.1872    -1.5075    -2.5407 N.pl3        1    LIG   0.0000
  17 C17          5.9020    -1.1169    -2.3096 C.2          1    LIG   0.0000
  18 H            4.7345     0.7558     1.3016 H            1    LIG   0.0000
  19 H            7.7423    -1.2151    -3.3194 H            1    LIG   0.0000
  20 H            6.5020     1.5150    -0.0965 H            1    LIG   0.0000
  21 H            6.4183    -0.1117    -0.2121 H            1    LIG   0.0000
  22 H            5.7940     0.8242    -1.3957 H            1    LIG   0.0000
  23 H            3.8926     2.7234     0.5152 H            1    LIG   0.0000
  24 H            4.0134     2.2502    -1.0431 H            1    LIG   0.0000
  25 H            1.0976     3.0888     0.0056 H            1    LIG   0.0000
  26 H           -0.8558    -0.4853     0.0220 H            1    LIG   0.0000
  27 H            1.2371    -1.6499    -0.0387 H            1    LIG   0.0000
  28 H            6.5829    -3.0788     0.1492 H            1    LIG   0.0000
  29 H            8.5100    -2.7816    -1.4930 H            1    LIG   0.0000
  30 H            5.3557    -0.4982    -2.8742 H            1    LIG   0.0000
@<TRIPOS>BOND
   1        1        2 1
   2        2        3 1
   3        3        4 1
   4        4        5 ar
   5        5        6 ar
   6        6        7 ar
   7        7        8 ar
   8        8        9 ar
   9        9        4 ar
  10        9       10 1
  11       10        2 1
  12       10       11 am
  13       11       12 2
  14       11       13 1
  15       13       14 1
  16       14       15 2
  17       15       16 1
  18       16       17 1
  19       17       13 2
  20        2       18 1
  21       16       19 1
  22        1       20 1
  23        1       21 1
  24        1       22 1
  25        3       23 1
  26        3       24 1
  27        5       25 1
  28        7       26 1
  29        8       27 1
  30       14       28 1
  31       15       29 1
  32       17       30 1

@<TRIPOS>MOLECULE

  30   32
SMALL
USER_CHARGES
@<TRIPOS>ATOM
   1 C1           5.9446     0.7464    -0.4102 C.3          1    LIG   0.0000
   2 C2           4.6059     0.7641     0.3099 C.3          1    LIG   0.0000
   3 C3           3.7726     1.9583    -0.1174 C.3          1    LIG   0.0000
   4 C4           2.3544     1.4302    -0.0670 C.ar         1    LIG   0.0000
   5 C5           1.1347     2.0897    -0.0135 C.ar         1    LIG   0.0000
   6 N6           0.0049     1.3645     0.0123 N.ar         1    LIG   0.0000
   7 C7           0.0053     0.0228     0.0033 C.ar         1    LIG   0.0000
   8 C8           1.2211    -0.6500    -0.0324 C.ar         1    LIG   0.0000
   9 C9           2.4156     0.0622    -0.0593 C.ar         1    LIG   0.0000
  10 N10          3.7494    -0.3433    -0.1139 N.am         1    LIG   0.0000
  11 C11          4.2049    -1.6041    -0.5347 C.2          1    LIG   0.0000
  12 O12          3.5168    -2.5743    -0.3759 O.2          1    LIG   0.0000
  13 C13          5.5052    -1.7328    -1.1601 C.2          1    LIG   0.0000
  14 C14          5.9126    -1.0962    -2.3551 C.2          1    LIG   0.0000
  15 C15          7.1978    -1.4862    -2.5884 C.2          1    LIG   0.0000
  16 N16          7.5679    -2.3286    -1.5803 N.pl3        1    LIG   0.0000
  17 C17          6.5405    -2.4903    -0.6993 C.2          1    LIG   0.0000
  18 H            4.7345     0.7558     1.3016 H            1    LIG   0.0000
  19 H            8.4642    -2.7646    -1.4997 H            1    LIG   0.0000
  20 H            6.5020     1.5150    -0.0965 H            1    LIG   0.0000
  21 H            6.4183    -0.1117    -0.2121 H            1    LIG   0.0000
  22 H            5.7940     0.8242    -1.3957 H            1    LIG   0.0000
  23 H            3.8926     2.7234     0.5152 H            1    LIG   0.0000
  24 H            4.0134     2.2502    -1.0431 H            1    LIG   0.0000
  25 H            1.0976     3.0888     0.0056 H            1    LIG   0.0000
  26 H           -0.8558    -0.4853     0.0220 H            1    LIG   0.0000
  27 H            1.2371    -1.6499    -0.0387 H            1    LIG   0.0000
  28 H            5.3641    -0.4794    -2.9197 H            1    LIG   0.0000
  29 H            7.7678    -1.2051    -3.3604 H            1    LIG   0.0000
  30 H            6.5454    -3.0555     0.1257 H            1    LIG   0.0000
@<TRIPOS>BOND
   1        1        2 1
   2        2        3 1
   3        3        4 1
   4        4        5 ar
   5        5        6 ar
   6        6        7 ar
   7        7        8 ar
   8        8        9 ar
   9        9        4 ar
  10        9       10 1
  11       10        2 1
  12       10       11 am
  13       11       12 2
  14       11       13 1
  15       13       14 1
  16       14       15 2
  17       15       16 1
  18       16       17 1
  19       17       13 2
  20        2       18 1
  21       16       19 1
  22        1       20 1
  23        1       21 1
  24        1       22 1
  25        3       23 1
  26        3       24 1
  27        5       25 1
  28        7       26 1
  29        8       27 1
  30       14       28 1
  31       15       29 1
  32       17       30 1

@<TRIPOS>MOLECULE

  30   32
SMALL
USER_CHARGES
@<TRIPOS>ATOM
   1 C1           4.8309     0.7948    -1.9661 C.3          1    LIG   0.0000
   2 C2           4.6223     0.7674    -0.4568 C.3          1    LIG   0.0000
   3 C3           3.7850     1.9325     0.0410 C.3          1    LIG   0.0000
   4 C4           2.3697     1.4151    -0.0034 C.ar         1    LIG   0.0000
   5 C5           1.1510     2.0872     0.0093 C.ar         1    LIG   0.0000
   6 N6           0.0200     1.3641     0.0092 N.ar         1    LIG   0.0000
   7 C7           0.0082     0.0224    -0.0052 C.ar         1    LIG   0.0000
   8 C8           1.2267    -0.6492    -0.0238 C.ar         1    LIG   0.0000
   9 C9           2.4317     0.0437    -0.0247 C.ar         1    LIG   0.0000
  10 N10          3.7739    -0.3466    -0.0334 N.am         1    LIG   0.0000
  11 C11          4.2470    -1.6087     0.3306 C.2          1    LIG   0.0000
  12 O12          5.4230    -1.8437     0.2881 O.2          1    LIG   0.0000
  13 C13          3.3184    -2.6345     0.7594 C.2          1    LIG   0.0000
  14 C14          3.1282    -3.8885     0.1347 C.2          1    LIG   0.0000
  15 C15          2.1699    -4.5419     0.8510 C.2          1    LIG   0.0000
  16 N16          1.7843    -3.7252     1.8743 N.pl3        1    LIG   0.0000
  17 C17          2.4780    -2.5527     1.8295 C.2          1    LIG   0.0000
  18 H            5.5016     0.7389     0.0185 H            1    LIG   0.0000
  19 H            1.0921    -3.9541     2.5587 H            1    LIG   0.0000
  20 H            5.4146     1.5699    -2.2078 H            1    LIG   0.0000
  21 H            5.2686    -0.0557    -2.2576 H            1    LIG   0.0000
  22 H            3.9464     0.8883    -2.4232 H            1    LIG   0.0000
  23 H            4.0428     2.1813     0.9747 H            1    LIG   0.0000
  24 H            3.8914     2.7269    -0.5570 H            1    LIG   0.0000
  25 H            1.1187     3.0866     0.0183 H            1    LIG   0.0000
  26 H           -0.8551    -0.4824    -0.0026 H            1    LIG   0.0000
  27 H            1.2357    -1.6491    -0.0368 H            1    LIG   0.0000
  28 H            3.6043    -4.2300    -0.6757 H            1    LIG   0.0000
  29 H            1.8131    -5.4564     0.6607 H            1    LIG   0.0000
  30 H            2.3878    -1.7817     2.4599 H            1    LIG   0.0000
@<TRIPOS>BOND
   1        1        2 1
   2        2        3 1
   3        3        4 1
   4        4        5 ar
   5        5        6 ar
   6        6        7 ar
   7        7        8 ar
   8        8        9 ar
   9        9        4 ar
  10        9       10 1
  11       10        2 1
  12       10       11 am
  13       11       12 2
  14       11       13 1
  15       13       14 1
  16       14       15 2
  17       15       16 1
  18       16       17 1
  19       17       13 2
  20        2       18 1
  21       16       19 1
  22        1       20 1
  23        1       21 1
  24        1       22 1
  25        3       23 1
  26        3       24 1
  27        5       25 1
  28        7       26 1
  29        8       27 1
  30       14       28 1
  31       15       29 1
  32       17       30 1

@<TRIPOS>MOLECULE

  30   32
SMALL
USER_CHARGES
@<TRIPOS>ATOM
   1 C1           4.8309     0.7948    -1.9661 C.3          1    LIG   0.0000
   2 C2           4.6223     0.7674    -0.4568 C.3          1    LIG   0.0000
   3 C3           3.7850     1.9325     0.0410 C.3          1    LIG   0.0000
   4 C4           2.3697     1.4151    -0.0034 C.ar         1    LIG   0.0000
   5 C5           1.1510     2.0872     0.0093 C.ar         1    LIG   0.0000
   6 N6           0.0200     1.3641     0.0092 N.ar         1    LIG   0.0000
   7 C7           0.0082     0.0224    -0.0052 C.ar         1    LIG   0.0000
   8 C8           1.2267    -0.6492    -0.0238 C.ar         1    LIG   0.0000
   9 C9           2.4317     0.0437    -0.0247 C.ar         1    LIG   0.0000
  10 N10          3.7739    -0.3466    -0.0334 N.am         1    LIG   0.0000
  11 C11          4.2470    -1.6087     0.3306 C.2          1    LIG   0.0000
  12 O12          5.4230    -1.8437     0.2881 O.2          1    LIG   0.0000
  13 C13          3.3184    -2.6345     0.7594 C.2          1    LIG   0.0000
  14 C14          2.4509    -2.5487     1.8727 C.2          1    LIG   0.0000
  15 C15          1.7566    -3.7209     1.9196 C.2          1    LIG   0.0000
  16 N16          2.1783    -4.4977     0.8796 N.pl3        1    LIG   0.0000
  17 C17          3.1361    -3.8459     0.1616 C.2          1    LIG   0.0000
  18 H            5.5016     0.7389     0.0185 H            1    LIG   0.0000
  19 H            1.8339    -5.4138     0.6739 H            1    LIG   0.0000
  20 H            5.4146     1.5699    -2.2078 H            1    LIG   0.0000
  21 H            5.2686    -0.0557    -2.2576 H            1    LIG   0.0000
  22 H            3.9464     0.8883    -2.4232 H            1    LIG   0.0000
  23 H            4.0428     2.1813     0.9747 H            1    LIG   0.0000
  24 H            3.8914     2.7269    -0.5570 H            1    LIG   0.0000
  25 H            1.1187     3.0866     0.0183 H            1    LIG   0.0000
  26 H           -0.8551    -0.4824    -0.0026 H            1    LIG   0.0000
  27 H            1.2357    -1.6491    -0.0368 H            1    LIG   0.0000
  28 H            2.3636    -1.7777     2.5034 H            1    LIG   0.0000
  29 H            1.0621    -3.9677     2.5954 H            1    LIG   0.0000
  30 H            3.6129    -4.1898    -0.6473 H            1    LIG   0.0000
@<TRIPOS>BOND
   1        1        2 1
   2        2        3 1
   3        3        4 1
   4        4        5 ar
   5        5        6 ar
   6        6        7 ar
   7        7        8 ar
   8        8        9 ar
   9        9        4 ar
  10        9       10 1
  11       10        2 1
  12       10       11 am
  13       11       12 2
  14       11       13 1
  15       13       14 1
  16       14       15 2
  17       15       16 1
  18       16       17 1
  19       17       13 2
  20        2       18 1
  21       16       19 1
  22        1       20 1
  23        1       21 1
  24        1       22 1
  25        3       23 1
  26        3       24 1
  27        5       25 1
  28        7       26 1
  29        8       27 1
  30       14       28 1
  31       15       29 1
  32       17       30 1

@<TRIPOS>MOLECULE

  30   32
SMALL
USER_CHARGES
@<TRIPOS>ATOM
   1 C1           4.8309     0.7948    -1.9661 C.3          1    LIG   0.0000
   2 C2           4.6223     0.7674    -0.4568 C.3          1    LIG   0.0000
   3 C3           3.7850     1.9325     0.0410 C.3          1    LIG   0.0000
   4 C4           2.3697     1.4151    -0.0034 C.ar         1    LIG   0.0000
   5 C5           1.1510     2.0872     0.0093 C.ar         1    LIG   0.0000
   6 N6           0.0200     1.3641     0.0092 N.ar         1    LIG   0.0000
   7 C7           0.0082     0.0224    -0.0052 C.ar         1    LIG   0.0000
   8 C8           1.2267    -0.6492    -0.0238 C.ar         1    LIG   0.0000
   9 C9           2.4317     0.0437    -0.0247 C.ar         1    LIG   0.0000
  10 N10          3.7739    -0.3466    -0.0334 N.am         1    LIG   0.0000
  11 C11          4.2470    -1.6087     0.3306 C.2          1    LIG   0.0000
  12 O12          3.4778    -2.4584     0.6858 O.2          1    LIG   0.0000
  13 C13          5.6667    -1.8924     0.2793 C.2          1    LIG   0.0000
  14 C14          6.4713    -2.2769     1.3765 C.2          1    LIG   0.0000
  15 C15          7.7364    -2.4417     0.8961 C.2          1    LIG   0.0000
  16 N16          7.7137    -2.1696    -0.4411 N.pl3        1    LIG   0.0000
  17 C17          6.4531    -1.8299    -0.8324 C.2          1    LIG   0.0000
  18 H            5.5016     0.7389     0.0185 H            1    LIG   0.0000
  19 H            8.5081    -2.2132    -1.0470 H            1    LIG   0.0000
  20 H            5.4146     1.5699    -2.2078 H            1    LIG   0.0000
  21 H            5.2686    -0.0557    -2.2576 H            1    LIG   0.0000
  22 H            3.9464     0.8883    -2.4232 H            1    LIG   0.0000
  23 H            4.0428     2.1813     0.9747 H            1    LIG   0.0000
  24 H            3.8914     2.7269    -0.5570 H            1    LIG   0.0000
  25 H            1.1187     3.0866     0.0183 H            1    LIG   0.0000
  26 H           -0.8551    -0.4824    -0.0026 H            1    LIG   0.0000
  27 H            1.2357    -1.6491    -0.0368 H            1    LIG   0.0000
  28 H            6.1707    -2.4034     2.3218 H            1    LIG   0.0000
  29 H            8.5380    -2.7135     1.4285 H            1    LIG   0.0000
  30 H            6.1614    -1.5826    -1.7564 H            1    LIG   0.0000
@<TRIPOS>BOND
   1        1        2 1
   2        2        3 1
   3        3        4 1
   4        4        5 ar
   5        5        6 ar
   6        6        7 ar
   7        7        8 ar
   8        8        9 ar
   9        9        4 ar
  10        9       10 1
  11       10        2 1
  12       10       11 am
  13       11       12 2
  14       11       13 1
  15       13       14 1
  16       14       15 2
  17       15       16 1
  18       16       17 1
  19       17       13 2
  20        2       18 1
  21       16       19 1
  22        1       20 1
  23        1       21 1
  24        1       22 1
  25        3       23 1
  26        3       24 1
  27        5       25 1
  28        7       26 1
  29        8       27 1
  30       14       28 1
  31       15       29 1
  32       17       30 1

@<TRIPOS>MOLECULE

  30   32
SMALL
USER_CHARGES
@<TRIPOS>ATOM
   1 C1           4.8309     0.7948    -1.9661 C.3          1    LIG   0.0000
   2 C2           4.6223     0.7674    -0.4568 C.3          1    LIG   0.0000
   3 C3           3.7850     1.9325     0.0410 C.3          1    LIG   0.0000
   4 C4           2.3697     1.4151    -0.0034 C.ar         1    LIG   0.0000
   5 C5           1.1510     2.0872     0.0093 C.ar         1    LIG   0.0000
   6 N6           0.0200     1.3641     0.0092 N.ar         1    LIG   0.0000
   7 C7           0.0082     0.0224    -0.0052 C.ar         1    LIG   0.0000
   8 C8           1.2267    -0.6492    -0.0238 C.ar         1    LIG   0.0000
   9 C9           2.4317     0.0437    -0.0247 C.ar         1    LIG   0.0000
  10 N10          3.7739    -0.3466    -0.0334 N.am         1    LIG   0.0000
  11 C11          4.2470    -1.6087     0.3306 C.2          1    LIG   0.0000
  12 O12          3.4778    -2.4584     0.6858 O.2          1    LIG   0.0000
  13 C13          5.6667    -1.8924     0.2793 C.2          1    LIG   0.0000
  14 C14          6.2792    -2.8984    -0.5030 C.2          1    LIG   0.0000
  15 C15          7.6180    -2.8258    -0.2564 C.2          1    LIG   0.0000
  16 N16          7.8231    -1.8179     0.6408 N.pl3        1    LIG   0.0000
  17 C17          6.6366    -1.2386     0.9793 C.2          1    LIG   0.0000
  18 H            5.5016     0.7389     0.0185 H            1    LIG   0.0000
  19 H            8.7158    -1.5439     0.9985 H            1    LIG   0.0000
  20 H            5.4146     1.5699    -2.2078 H            1    LIG   0.0000
  21 H            5.2686    -0.0557    -2.2576 H            1    LIG   0.0000
  22 H            3.9464     0.8883    -2.4232 H            1    LIG   0.0000
  23 H            4.0428     2.1813     0.9747 H            1    LIG   0.0000
  24 H            3.8914     2.7269    -0.5570 H            1    LIG   0.0000
  25 H            1.1187     3.0866     0.0183 H            1    LIG   0.0000
  26 H           -0.8551    -0.4824    -0.0026 H            1    LIG   0.0000
  27 H            1.2357    -1.6491    -0.0368 H            1    LIG   0.0000
  28 H            5.8195    -3.5391    -1.1179 H            1    LIG   0.0000
  29 H            8.3239    -3.4072    -0.6609 H            1    LIG   0.0000
  30 H            6.5035    -0.4805     1.6177 H            1    LIG   0.0000
@<TRIPOS>BOND
   1        1        2 1
   2        2        3 1
   3        3        4 1
   4        4        5 ar
   5        5        6 ar
   6        6        7 ar
   7        7        8 ar
   8        8        9 ar
   9        9        4 ar
  10        9       10 1
  11       10        2 1
  12       10       11 am
  13       11       12 2
  14       11       13 1
  15       13       14 1
  16       14       15 2
  17       15       16 1
  18       16       17 1
  19       17       13 2
  20        2       18 1
  21       16       19 1
  22        1       20 1
  23        1       21 1
  24        1       22 1
  25        3       23 1
  26        3       24 1
  27        5       25 1
  28        7       26 1
  29        8       27 1
  30       14       28 1
  31       15       29 1
  32       17       30 1

@<TRIPOS>MOLECULE

  30   32
SMALL
USER_CHARGES
@<TRIPOS>ATOM
   1 C1           4.8309     0.7948    -1.9661 C.3          1    LIG   0.0000
   2 C2           4.6223     0.7674    -0.4568 C.3          1    LIG   0.0000
   3 C3           3.7850     1.9325     0.0410 C.3          1    LIG   0.0000
   4 C4           2.3697     1.4151    -0.0034 C.ar         1    LIG   0.0000
   5 C5           1.1510     2.0872     0.0093 C.ar         1    LIG   0.0000
   6 N6           0.0200     1.3641     0.0092 N.ar         1    LIG   0.0000
   7 C7           0.0082     0.0224    -0.0052 C.ar         1    LIG   0.0000
   8 C8           1.2267    -0.6492    -0.0238 C.ar         1    LIG   0.0000
   9 C9           2.4317     0.0437    -0.0247 C.ar         1    LIG   0.0000
  10 N10          3.7739    -0.3466    -0.0334 N.am         1    LIG   0.0000
  11 C11          4.2470    -1.6087     0.3306 C.2          1    LIG   0.0000
  12 O12          3.5583    -2.5777     0.1675 O.2          1    LIG   0.0000
  13 C13          5.5696    -1.7484     0.9050 C.2          1    LIG   0.0000
  14 C14          6.7837    -1.3837     0.2790 C.2          1    LIG   0.0000
  15 C15          7.7825    -1.6812     1.1577 C.2          1    LIG   0.0000
  16 N16          7.2091    -2.2080     2.2786 N.pl3        1    LIG   0.0000
  17 C17          5.8543    -2.2570     2.1373 C.2          1    LIG   0.0000
  18 H            5.5016     0.7389     0.0185 H            1    LIG   0.0000
  19 H            7.7110    -2.5142     3.0876 H            1    LIG   0.0000
  20 H            5.4146     1.5699    -2.2078 H            1    LIG   0.0000
  21 H            5.2686    -0.0557    -2.2576 H            1    LIG   0.0000
  22 H            3.9464     0.8883    -2.4232 H            1    LIG   0.0000
  23 H            4.0428     2.1813     0.9747 H            1    LIG   0.0000
  24 H            3.8914     2.7269    -0.5570 H            1    LIG   0.0000
  25 H            1.1187     3.0866     0.0183 H            1    LIG   0.0000
  26 H           -0.8551    -0.4824    -0.0026 H            1    LIG   0.0000
  27 H            1.2357    -1.6491    -0.0368 H            1    LIG   0.0000
  28 H            6.8893    -0.9849    -0.6320 H            1    LIG   0.0000
  29 H            8.7609    -1.5388     1.0078 H            1    LIG   0.0000
  30 H            5.1965    -2.5998     2.8079 H            1    LIG   0.0000
@<TRIPOS>BOND
   1        1        2 1
   2        2        3 1
   3        3        4 1
   4        4        5 ar
   5        5        6 ar
   6        6        7 ar
   7        7        8 ar
   8        8        9 ar
   9        9        4 ar
  10        9       10 1
  11       10        2 1
  12       10       11 am
  13       11       12 2
  14       11       13 1
  15       13       14 1
  16       14       15 2
  17       15       16 1
  18       16       17 1
  19       17       13 2
  20        2       18 1
  21       16       19 1
  22        1       20 1
  23        1       21 1
  24        1       22 1
  25        3       23 1
  26        3       24 1
  27        5       25 1
  28        7       26 1
  29        8       27 1
  30       14       28 1
  31       15       29 1
  32       17       30 1

@<TRIPOS>MOLECULE

  30   32
SMALL
USER_CHARGES
@<TRIPOS>ATOM
   1 C1           4.8309     0.7948    -1.9661 C.3          1    LIG   0.0000
   2 C2           4.6223     0.7674    -0.4568 C.3          1    LIG   0.0000
   3 C3           3.7850     1.9325     0.0410 C.3          1    LIG   0.0000
   4 C4           2.3697     1.4151    -0.0034 C.ar         1    LIG   0.0000
   5 C5           1.1510     2.0872     0.0093 C.ar         1    LIG   0.0000
   6 N6           0.0200     1.3641     0.0092 N.ar         1    LIG   0.0000
   7 C7           0.0082     0.0224    -0.0052 C.ar         1    LIG   0.0000
   8 C8           1.2267    -0.6492    -0.0238 C.ar         1    LIG   0.0000
   9 C9           2.4317     0.0437    -0.0247 C.ar         1    LIG   0.0000
  10 N10          3.7739    -0.3466    -0.0334 N.am         1    LIG   0.0000
  11 C11          4.2470    -1.6087     0.3306 C.2          1    LIG   0.0000
  12 O12          3.5583    -2.5777     0.1675 O.2          1    LIG   0.0000
  13 C13          5.5696    -1.7484     0.9050 C.2          1    LIG   0.0000
  14 C14          6.2385    -0.7749     1.6822 C.2          1    LIG   0.0000
  15 C15          7.4485    -1.3054     2.0182 C.2          1    LIG   0.0000
  16 N16          7.5235    -2.5534     1.4708 N.pl3        1    LIG   0.0000
  17 C17          6.3806    -2.8373     0.7845 C.2          1    LIG   0.0000
  18 H            5.5016     0.7389     0.0185 H            1    LIG   0.0000
  19 H            8.3050    -3.1709     1.5603 H            1    LIG   0.0000
  20 H            5.4146     1.5699    -2.2078 H            1    LIG   0.0000
  21 H            5.2686    -0.0557    -2.2576 H            1    LIG   0.0000
  22 H            3.9464     0.8883    -2.4232 H            1    LIG   0.0000
  23 H            4.0428     2.1813     0.9747 H            1    LIG   0.0000
  24 H            3.8914     2.7269    -0.5570 H            1    LIG   0.0000
  25 H            1.1187     3.0866     0.0183 H            1    LIG   0.0000
  26 H           -0.8551    -0.4824    -0.0026 H            1    LIG   0.0000
  27 H            1.2357    -1.6491    -0.0368 H            1    LIG   0.0000
  28 H            5.8913     0.1278     1.9363 H            1    LIG   0.0000
  29 H            8.1551    -0.8597     2.5678 H            1    LIG   0.0000
  30 H            6.1766    -3.6813     0.2885 H            1    LIG   0.0000
@<TRIPOS>BOND
   1        1        2 1
   2        2        3 1
   3        3        4 1
   4        4        5 ar
   5        5        6 ar
   6        6        7 ar
   7        7        8 ar
   8        8        9 ar
   9        9        4 ar
  10        9       10 1
  11       10        2 1
  12       10       11 am
  13       11       12 2
  14       11       13 1
  15       13       14 1
  16       14       15 2
  17       15       16 1
  18       16       17 1
  19       17       13 2
  20        2       18 1
  21       16       19 1
  22        1       20 1
  23        1       21 1
  24        1       22 1
  25        3       23 1
  26        3       24 1
  27        5       25 1
  28        7       26 1
  29        8       27 1
  30       14       28 1
  31       15       29 1
  32       17       30 1

@<TRIPOS>MOLECULE

  30   32
SMALL
USER_CHARGES
@<TRIPOS>ATOM
   1 C1           4.8309     0.7948    -1.9661 C.3          1    LIG   0.0000
   2 C2           4.6223     0.7674    -0.4568 C.3          1    LIG   0.0000
   3 C3           3.7850     1.9325     0.0410 C.3          1    LIG   0.0000
   4 C4           2.3697     1.4151    -0.0034 C.ar         1    LIG   0.0000
   5 C5           1.1510     2.0872     0.0093 C.ar         1    LIG   0.0000
   6 N6           0.0200     1.3641     0.0092 N.ar         1    LIG   0.0000
   7 C7           0.0082     0.0224    -0.0052 C.ar         1    LIG   0.0000
   8 C8           1.2267    -0.6492    -0.0238 C.ar         1    LIG   0.0000
   9 C9           2.4317     0.0437    -0.0247 C.ar         1    LIG   0.0000
  10 N10          3.7739    -0.3466    -0.0334 N.am         1    LIG   0.0000
  11 C11          4.2470    -1.6087     0.3306 C.2          1    LIG   0.0000
  12 O12          3.6579    -2.2567     1.1509 O.2          1    LIG   0.0000
  13 C13          5.4493    -2.1358    -0.2821 C.2          1    LIG   0.0000
  14 C14          6.7313    -1.5420    -0.2280 C.2          1    LIG   0.0000
  15 C15          7.5699    -2.3556    -0.9303 C.2          1    LIG   0.0000
  16 N16          6.8363    -3.4068    -1.3987 N.pl3        1    LIG   0.0000
  17 C17          5.5353    -3.2845    -1.0111 C.2          1    LIG   0.0000
  18 H            5.5016     0.7389     0.0185 H            1    LIG   0.0000
  19 H            7.2009    -4.1590    -1.9477 H            1    LIG   0.0000
  20 H            5.4146     1.5699    -2.2078 H            1    LIG   0.0000
  21 H            5.2686    -0.0557    -2.2576 H            1    LIG   0.0000
  22 H            3.9464     0.8883    -2.4232 H            1    LIG   0.0000
  23 H            4.0428     2.1813     0.9747 H            1    LIG   0.0000
  24 H            3.8914     2.7269    -0.5570 H            1    LIG   0.0000
  25 H            1.1187     3.0866     0.0183 H            1    LIG   0.0000
  26 H           -0.8551    -0.4824    -0.0026 H            1    LIG   0.0000
  27 H            1.2357    -1.6491    -0.0368 H            1    LIG   0.0000
  28 H            6.9755    -0.6903     0.2355 H            1    LIG   0.0000
  29 H            8.5482    -2.2085    -1.0761 H            1    LIG   0.0000
  30 H            4.7883    -3.9153    -1.2209 H            1    LIG   0.0000
@<TRIPOS>BOND
   1        1        2 1
   2        2        3 1
   3        3        4 1
   4        4        5 ar
   5        5        6 ar
   6        6        7 ar
   7        7        8 ar
   8        8        9 ar
   9        9        4 ar
  10        9       10 1
  11       10        2 1
  12       10       11 am
  13       11       12 2
  14       11       13 1
  15       13       14 1
  16       14       15 2
  17       15       16 1
  18       16       17 1
  19       17       13 2
  20        2       18 1
  21       16       19 1
  22        1       20 1
  23        1       21 1
  24        1       22 1
  25        3       23 1
  26        3       24 1
  27        5       25 1
  28        7       26 1
  29        8       27 1
  30       14       28 1
  31       15       29 1
  32       17       30 1

