@<TRIPOS>MOLECULE
*****
 30 32 0 0 0
SMALL
USER_CHARGES

@<TRIPOS>ATOM
      1 C1          4.8309    0.7948   -1.9661 C.3     1  LIG1        0.0000
      2 C2          4.6223    0.7674   -0.4568 C.3     1  LIG1        0.0000
      3 C3          3.7850    1.9325    0.0410 C.3     1  LIG1        0.0000
      4 C4          2.3697    1.4151   -0.0034 C.3     1  LIG1        0.0000
      5 C5          1.1510    2.0872    0.0093 C.3     1  LIG1        0.0000
      6 N6          0.0200    1.3641    0.0092 N.pl3   1  LIG1        0.0000
      7 C7          0.0082    0.0224   -0.0052 C.3     1  LIG1        0.0000
      8 C8          1.2267   -0.6492   -0.0238 C.3     1  LIG1        0.0000
      9 C9          2.4317    0.0437   -0.0247 C.3     1  LIG1        0.0000
     10 N10         3.7739   -0.3466   -0.0334 N.am    1  LIG1        0.0000
     11 C11         4.2470   -1.6087    0.3306 C.2     1  LIG1        0.0000
     12 O12         3.4778   -2.4584    0.6858 O.2     1  LIG1        0.0000
     13 C13         5.6667   -1.8924    0.2793 C.2     1  LIG1        0.0000
     14 C14         6.4713   -2.2769    1.3765 C.2     1  LIG1        0.0000
     15 C15         7.7364   -2.4417    0.8961 C.2     1  LIG1        0.0000
     16 N16         7.7137   -2.1696   -0.4411 N.pl3   1  LIG1        0.0000
     17 C17         6.4531   -1.8299   -0.8324 C.2     1  LIG1        0.0000
     18 H           5.5016    0.7389    0.0185 H       1  LIG1        0.0000
     19 H           8.5081   -2.2132   -1.0470 H       1  LIG1        0.0000
     20 H           5.4146    1.5699   -2.2078 H       1  LIG1        0.0000
     21 H           5.2686   -0.0557   -2.2576 H       1  LIG1        0.0000
     22 H           3.9464    0.8883   -2.4232 H       1  LIG1        0.0000
     23 H           4.0428    2.1813    0.9747 H       1  LIG1        0.0000
     24 H           3.8914    2.7269   -0.5570 H       1  LIG1        0.0000
     25 H           1.1187    3.0866    0.0183 H       1  LIG1        0.0000
     26 H          -0.8551   -0.4824   -0.0026 H       1  LIG1        0.0000
     27 H           1.2357   -1.6491   -0.0368 H       1  LIG1        0.0000
     28 H           6.1707   -2.4034    2.3218 H       1  LIG1        0.0000
     29 H           8.5380   -2.7135    1.4285 H       1  LIG1        0.0000
     30 H           6.1614   -1.5826   -1.7564 H       1  LIG1        0.0000
@<TRIPOS>BOND
     1     1     2    1
     2     2     3    1
     3     3     4    1
     4     4     5   ar
     5     5     6   ar
     6     6     7   ar
     7     7     8   ar
     8     8     9   ar
     9     9     4   ar
    10     9    10    1
    11    10     2    1
    12    10    11   am
    13    11    12    2
    14    11    13    1
    15    13    14    1
    16    14    15    2
    17    15    16    1
    18    16    17    1
    19    17    13    2
    20     2    18    1
    21    16    19    1
    22     1    20    1
    23     1    21    1
    24     1    22    1
    25     3    23    1
    26     3    24    1
    27     5    25    1
    28     7    26    1
    29     8    27    1
    30    14    28    1
    31    15    29    1
    32    17    30    1
