@<TRIPOS>MOLECULE
*****
 30 32 0 0 0
SMALL
USER_CHARGES

@<TRIPOS>ATOM
      1 C1          5.9446    0.7464   -0.4102 C.3     1  LIG1        0.0000
      2 C2          4.6059    0.7641    0.3099 C.3     1  LIG1        0.0000
      3 C3          3.7726    1.9583   -0.1174 C.3     1  LIG1        0.0000
      4 C4          2.3544    1.4302   -0.0670 C.3     1  LIG1        0.0000
      5 C5          1.1347    2.0897   -0.0135 C.3     1  LIG1        0.0000
      6 N6          0.0049    1.3645    0.0123 N.pl3   1  LIG1        0.0000
      7 C7          0.0053    0.0228    0.0033 C.3     1  LIG1        0.0000
      8 C8          1.2211   -0.6500   -0.0324 C.3     1  LIG1        0.0000
      9 C9          2.4156    0.0622   -0.0593 C.3     1  LIG1        0.0000
     10 N10         3.7494   -0.3433   -0.1139 N.am    1  LIG1        0.0000
     11 C11         4.2049   -1.6041   -0.5347 C.2     1  LIG1        0.0000
     12 O12         5.3803   -1.8458   -0.5414 O.2     1  LIG1        0.0000
     13 C13         3.2556   -2.6122   -0.9603 C.2     1  LIG1        0.0000
     14 C14         2.3433   -2.4856   -2.0331 C.2     1  LIG1        0.0000
     15 C15         1.6411   -3.6527   -2.0901 C.2     1  LIG1        0.0000
     16 N16         2.1001   -4.4650   -1.0940 N.pl3   1  LIG1        0.0000
     17 C17         3.0878   -3.8401   -0.3927 C.2     1  LIG1        0.0000
     18 H           4.7345    0.7558    1.3016 H       1  LIG1        0.0000
     19 H           1.7605   -5.3866   -0.9057 H       1  LIG1        0.0000
     20 H           6.5020    1.5150   -0.0965 H       1  LIG1        0.0000
     21 H           6.4183   -0.1117   -0.2121 H       1  LIG1        0.0000
     22 H           5.7940    0.8242   -1.3957 H       1  LIG1        0.0000
     23 H           3.8926    2.7234    0.5152 H       1  LIG1        0.0000
     24 H           4.0134    2.2502   -1.0431 H       1  LIG1        0.0000
     25 H           1.0976    3.0888    0.0056 H       1  LIG1        0.0000
     26 H          -0.8558   -0.4853    0.0220 H       1  LIG1        0.0000
     27 H           1.2371   -1.6499   -0.0387 H       1  LIG1        0.0000
     28 H           2.2342   -1.6935   -2.6336 H       1  LIG1        0.0000
     29 H           0.9185   -3.8741   -2.7450 H       1  LIG1        0.0000
     30 H           3.5918   -4.2108    0.3874 H       1  LIG1        0.0000
@<TRIPOS>BOND
     1     1     2    1
     2     2     3    1
     3     3     4    1
     4     4     5   ar
     5     5     6   ar
     6     6     7   ar
     7     7     8   ar
     8     8     9   ar
     9     9     4   ar
    10     9    10    1
    11    10     2    1
    12    10    11   am
    13    11    12    2
    14    11    13    1
    15    13    14    1
    16    14    15    2
    17    15    16    1
    18    16    17    1
    19    17    13    2
    20     2    18    1
    21    16    19    1
    22     1    20    1
    23     1    21    1
    24     1    22    1
    25     3    23    1
    26     3    24    1
    27     5    25    1
    28     7    26    1
    29     8    27    1
    30    14    28    1
    31    15    29    1
    32    17    30    1
