@<TRIPOS>MOLECULE

  34   36
SMALL
USER_CHARGES
@<TRIPOS>ATOM
   1 C1           3.1394     1.0603    -0.1543 C.2          1    LIG   0.0000
   2 C2           4.4431     1.0484     0.0834 C.2          1    LIG   0.0000
   3 C3           4.8342     0.9770     1.5517 C.3          1    LIG   0.0000
   4 C4           5.5523     2.1865     2.1248 C.3          1    LIG   0.0000
   5 C5           6.9298     2.2323     1.4810 C.3          1    LIG   0.0000
   6 C6           7.6635     0.9418     1.8147 C.3          1    LIG   0.0000
   7 C7           6.9199    -0.2925     1.3295 C.3          1    LIG   0.0000
   8 C8           5.5376    -0.3078     1.9626 C.3          1    LIG   0.0000
   9 S9           3.2555     0.9214     2.4219 S.3          1    LIG   0.0000
  10 C10          2.2701     1.0000     1.0000 C.2          1    LIG   0.0000
  11 N11          1.0000     1.0000     1.0000 N.2          1    LIG   0.0000
  12 C12          0.2170    -0.1609     1.0000 C.ar         1    LIG   0.0000
  13 C13         -1.1700    -0.0556     1.0000 C.ar         1    LIG   0.0000
  14 C14         -1.9400    -1.2139     1.0007 C.ar         1    LIG   0.0000
  15 C15         -1.3220    -2.4608     1.0012 C.ar         1    LIG   0.0000
  16 C16          0.0658    -2.5567     1.0009 C.ar         1    LIG   0.0000
  17 C17          0.8433    -1.4029     1.0008 C.ar         1    LIG   0.0000
  18 H            2.7752     1.1085    -1.0844 H            1    LIG   0.0000
  19 H            5.1215     1.0839    -0.6504 H            1    LIG   0.0000
  20 H            5.6398     2.0958     3.1168 H            1    LIG   0.0000
  21 H            5.0449     3.0209     1.9098 H            1    LIG   0.0000
  22 H            7.4426     3.0134     1.8373 H            1    LIG   0.0000
  23 H            6.8356     2.3198     0.4893 H            1    LIG   0.0000
  24 H            7.7716     0.8817     2.8070 H            1    LIG   0.0000
  25 H            8.5647     0.9641     1.3820 H            1    LIG   0.0000
  26 H            6.8338    -0.2638     0.3336 H            1    LIG   0.0000
  27 H            7.4220    -1.1148     1.5971 H            1    LIG   0.0000
  28 H            5.0211    -1.0996     1.6365 H            1    LIG   0.0000
  29 H            5.6183    -0.3497     2.9585 H            1    LIG   0.0000
  30 H           -1.6088     0.8430     0.9995 H            1    LIG   0.0000
  31 H           -2.9380    -1.1508     1.0010 H            1    LIG   0.0000
  32 H           -1.8782    -3.2918     1.0017 H            1    LIG   0.0000
  33 H            0.5047    -3.4552     1.0007 H            1    LIG   0.0000
  34 H            1.8413    -1.4659     1.0013 H            1    LIG   0.0000
@<TRIPOS>BOND
   1        1        2 2
   2        2        3 1
   3        3        4 1
   4        4        5 1
   5        5        6 1
   6        6        7 1
   7        7        8 1
   8        8        3 1
   9        3        9 1
  10        9       10 1
  11       10        1 1
  12       10       11 2
  13       11       12 1
  14       12       13 ar
  15       13       14 ar
  16       14       15 ar
  17       15       16 ar
  18       16       17 ar
  19       17       12 ar
  20        1       18 1
  21        2       19 1
  22        4       20 1
  23        4       21 1
  24        5       22 1
  25        5       23 1
  26        6       24 1
  27        6       25 1
  28        7       26 1
  29        7       27 1
  30        8       28 1
  31        8       29 1
  32       13       30 1
  33       14       31 1
  34       15       32 1
  35       16       33 1
  36       17       34 1

@<TRIPOS>MOLECULE

  34   36
SMALL
USER_CHARGES
@<TRIPOS>ATOM
   1 C1           3.1394     1.0603    -0.1543 C.2          1    LIG   0.0000
   2 C2           4.4431     1.0484     0.0834 C.2          1    LIG   0.0000
   3 C3           4.8342     0.9770     1.5517 C.3          1    LIG   0.0000
   4 C4           5.5523     2.1865     2.1248 C.3          1    LIG   0.0000
   5 C5           6.9298     2.2323     1.4810 C.3          1    LIG   0.0000
   6 C6           7.6635     0.9418     1.8147 C.3          1    LIG   0.0000
   7 C7           6.9199    -0.2925     1.3295 C.3          1    LIG   0.0000
   8 C8           5.5376    -0.3078     1.9626 C.3          1    LIG   0.0000
   9 S9           3.2555     0.9214     2.4219 S.3          1    LIG   0.0000
  10 C10          2.2701     1.0000     1.0000 C.2          1    LIG   0.0000
  11 N11          1.0000     1.0000     1.0000 N.2          1    LIG   0.0000
  12 C12          0.2170    -0.1609     1.0000 C.ar         1    LIG   0.0000
  13 C13         -0.1679    -0.7315    -0.2088 C.ar         1    LIG   0.0000
  14 C14         -0.9463    -1.8842    -0.1993 C.ar         1    LIG   0.0000
  15 C15         -1.3314    -2.4544     1.0102 C.ar         1    LIG   0.0000
  16 C16         -0.9417    -1.8771     2.2144 C.ar         1    LIG   0.0000
  17 C17         -0.1636    -0.7237     2.2138 C.ar         1    LIG   0.0000
  18 H            2.7752     1.1085    -1.0844 H            1    LIG   0.0000
  19 H            5.1215     1.0839    -0.6504 H            1    LIG   0.0000
  20 H            5.6398     2.0958     3.1168 H            1    LIG   0.0000
  21 H            5.0449     3.0209     1.9098 H            1    LIG   0.0000
  22 H            7.4426     3.0134     1.8373 H            1    LIG   0.0000
  23 H            6.8356     2.3198     0.4893 H            1    LIG   0.0000
  24 H            7.7716     0.8817     2.8070 H            1    LIG   0.0000
  25 H            8.5647     0.9641     1.3820 H            1    LIG   0.0000
  26 H            6.8338    -0.2638     0.3336 H            1    LIG   0.0000
  27 H            7.4220    -1.1148     1.5971 H            1    LIG   0.0000
  28 H            5.0211    -1.0996     1.6365 H            1    LIG   0.0000
  29 H            5.6183    -0.3497     2.9585 H            1    LIG   0.0000
  30 H            0.1119    -0.3176    -1.0750 H            1    LIG   0.0000
  31 H           -1.2293    -2.3033    -1.0620 H            1    LIG   0.0000
  32 H           -1.8910    -3.2832     1.0138 H            1    LIG   0.0000
  33 H           -1.2209    -2.2913     3.0807 H            1    LIG   0.0000
  34 H            0.1188    -0.3040     3.0764 H            1    LIG   0.0000
@<TRIPOS>BOND
   1        1        2 2
   2        2        3 1
   3        3        4 1
   4        4        5 1
   5        5        6 1
   6        6        7 1
   7        7        8 1
   8        8        3 1
   9        3        9 1
  10        9       10 1
  11       10        1 1
  12       10       11 2
  13       11       12 1
  14       12       13 ar
  15       13       14 ar
  16       14       15 ar
  17       15       16 ar
  18       16       17 ar
  19       17       12 ar
  20        1       18 1
  21        2       19 1
  22        4       20 1
  23        4       21 1
  24        5       22 1
  25        5       23 1
  26        6       24 1
  27        6       25 1
  28        7       26 1
  29        7       27 1
  30        8       28 1
  31        8       29 1
  32       13       30 1
  33       14       31 1
  34       15       32 1
  35       16       33 1
  36       17       34 1

@<TRIPOS>MOLECULE

  34   36
SMALL
USER_CHARGES
@<TRIPOS>ATOM
   1 C1           3.1376     1.1500    -0.1425 C.2          1    LIG   0.0000
   2 C2           4.4445     1.1213     0.0876 C.2          1    LIG   0.0000
   3 C3           4.8836     0.9372     1.5364 C.3          1    LIG   0.0000
   4 C4           5.5633     2.1103     2.2337 C.3          1    LIG   0.0000
   5 C5           5.8326     1.8813     3.7150 C.3          1    LIG   0.0000
   6 C6           6.5268     0.5518     3.9816 C.3          1    LIG   0.0000
   7 C7           5.8429    -0.6295     3.3080 C.3          1    LIG   0.0000
   8 C8           5.5854    -0.3847     1.8270 C.3          1    LIG   0.0000
   9 S9           3.2959     0.8242     2.3845 S.3          1    LIG   0.0000
  10 C10          2.2707     1.0000     1.0000 C.2          1    LIG   0.0000
  11 N11          1.0000     1.0000     1.0000 N.2          1    LIG   0.0000
  12 C12          0.2170    -0.1609     1.0000 C.ar         1    LIG   0.0000
  13 C13         -1.1700    -0.0556     1.0000 C.ar         1    LIG   0.0000
  14 C14         -1.9400    -1.2139     1.0007 C.ar         1    LIG   0.0000
  15 C15         -1.3220    -2.4608     1.0012 C.ar         1    LIG   0.0000
  16 C16          0.0658    -2.5567     1.0009 C.ar         1    LIG   0.0000
  17 C17          0.8433    -1.4029     1.0008 C.ar         1    LIG   0.0000
  18 H            2.7712     1.2700    -1.0652 H            1    LIG   0.0000
  19 H            5.1092     1.2159    -0.6535 H            1    LIG   0.0000
  20 H            4.9751     2.9138     2.1419 H            1    LIG   0.0000
  21 H            6.4369     2.2828     1.7787 H            1    LIG   0.0000
  22 H            4.9610     1.8922     4.2051 H            1    LIG   0.0000
  23 H            6.4146     2.6208     4.0535 H            1    LIG   0.0000
  24 H            6.5378     0.3917     4.9686 H            1    LIG   0.0000
  25 H            7.4658     0.6105     3.6429 H            1    LIG   0.0000
  26 H            6.4269    -1.4356     3.4033 H            1    LIG   0.0000
  27 H            4.9680    -0.7961     3.7627 H            1    LIG   0.0000
  28 H            6.4639    -0.3872     1.3493 H            1    LIG   0.0000
  29 H            5.0145    -1.1282     1.4789 H            1    LIG   0.0000
  30 H           -1.6088     0.8430     0.9995 H            1    LIG   0.0000
  31 H           -2.9380    -1.1508     1.0010 H            1    LIG   0.0000
  32 H           -1.8782    -3.2918     1.0017 H            1    LIG   0.0000
  33 H            0.5047    -3.4552     1.0007 H            1    LIG   0.0000
  34 H            1.8413    -1.4659     1.0013 H            1    LIG   0.0000
@<TRIPOS>BOND
   1        1        2 2
   2        2        3 1
   3        3        4 1
   4        4        5 1
   5        5        6 1
   6        6        7 1
   7        7        8 1
   8        8        3 1
   9        3        9 1
  10        9       10 1
  11       10        1 1
  12       10       11 2
  13       11       12 1
  14       12       13 ar
  15       13       14 ar
  16       14       15 ar
  17       15       16 ar
  18       16       17 ar
  19       17       12 ar
  20        1       18 1
  21        2       19 1
  22        4       20 1
  23        4       21 1
  24        5       22 1
  25        5       23 1
  26        6       24 1
  27        6       25 1
  28        7       26 1
  29        7       27 1
  30        8       28 1
  31        8       29 1
  32       13       30 1
  33       14       31 1
  34       15       32 1
  35       16       33 1
  36       17       34 1

@<TRIPOS>MOLECULE

  34   36
SMALL
USER_CHARGES
@<TRIPOS>ATOM
   1 C1           3.1376     1.1500    -0.1425 C.2          1    LIG   0.0000
   2 C2           4.4445     1.1213     0.0876 C.2          1    LIG   0.0000
   3 C3           4.8836     0.9372     1.5364 C.3          1    LIG   0.0000
   4 C4           5.5633     2.1103     2.2337 C.3          1    LIG   0.0000
   5 C5           5.8326     1.8813     3.7150 C.3          1    LIG   0.0000
   6 C6           6.5268     0.5518     3.9816 C.3          1    LIG   0.0000
   7 C7           5.8429    -0.6295     3.3080 C.3          1    LIG   0.0000
   8 C8           5.5854    -0.3847     1.8270 C.3          1    LIG   0.0000
   9 S9           3.2959     0.8242     2.3845 S.3          1    LIG   0.0000
  10 C10          2.2707     1.0000     1.0000 C.2          1    LIG   0.0000
  11 N11          1.0000     1.0000     1.0000 N.2          1    LIG   0.0000
  12 C12          0.2170    -0.1609     1.0000 C.ar         1    LIG   0.0000
  13 C13         -0.1679    -0.7315    -0.2088 C.ar         1    LIG   0.0000
  14 C14         -0.9463    -1.8842    -0.1993 C.ar         1    LIG   0.0000
  15 C15         -1.3314    -2.4544     1.0102 C.ar         1    LIG   0.0000
  16 C16         -0.9417    -1.8771     2.2144 C.ar         1    LIG   0.0000
  17 C17         -0.1636    -0.7237     2.2138 C.ar         1    LIG   0.0000
  18 H            2.7712     1.2700    -1.0652 H            1    LIG   0.0000
  19 H            5.1092     1.2159    -0.6535 H            1    LIG   0.0000
  20 H            4.9751     2.9138     2.1419 H            1    LIG   0.0000
  21 H            6.4369     2.2828     1.7787 H            1    LIG   0.0000
  22 H            4.9610     1.8922     4.2051 H            1    LIG   0.0000
  23 H            6.4146     2.6208     4.0535 H            1    LIG   0.0000
  24 H            6.5378     0.3917     4.9686 H            1    LIG   0.0000
  25 H            7.4658     0.6105     3.6429 H            1    LIG   0.0000
  26 H            6.4269    -1.4356     3.4033 H            1    LIG   0.0000
  27 H            4.9680    -0.7961     3.7627 H            1    LIG   0.0000
  28 H            6.4639    -0.3872     1.3493 H            1    LIG   0.0000
  29 H            5.0145    -1.1282     1.4789 H            1    LIG   0.0000
  30 H            0.1119    -0.3176    -1.0750 H            1    LIG   0.0000
  31 H           -1.2293    -2.3033    -1.0620 H            1    LIG   0.0000
  32 H           -1.8910    -3.2832     1.0138 H            1    LIG   0.0000
  33 H           -1.2209    -2.2913     3.0807 H            1    LIG   0.0000
  34 H            0.1188    -0.3040     3.0764 H            1    LIG   0.0000
@<TRIPOS>BOND
   1        1        2 2
   2        2        3 1
   3        3        4 1
   4        4        5 1
   5        5        6 1
   6        6        7 1
   7        7        8 1
   8        8        3 1
   9        3        9 1
  10        9       10 1
  11       10        1 1
  12       10       11 2
  13       11       12 1
  14       12       13 ar
  15       13       14 ar
  16       14       15 ar
  17       15       16 ar
  18       16       17 ar
  19       17       12 ar
  20        1       18 1
  21        2       19 1
  22        4       20 1
  23        4       21 1
  24        5       22 1
  25        5       23 1
  26        6       24 1
  27        6       25 1
  28        7       26 1
  29        7       27 1
  30        8       28 1
  31        8       29 1
  32       13       30 1
  33       14       31 1
  34       15       32 1
  35       16       33 1
  36       17       34 1

@<TRIPOS>MOLECULE

  34   36
SMALL
USER_CHARGES
@<TRIPOS>ATOM
   1 C1           3.1356     1.9792     1.6188 C.2          1    LIG   0.0000
   2 C2           4.4402     1.7938     1.5020 C.2          1    LIG   0.0000
   3 C3           4.8698     0.5511     0.7294 C.3          1    LIG   0.0000
   4 C4           5.5233    -0.5385     1.5785 C.3          1    LIG   0.0000
   5 C5           5.7790    -1.8542     0.8564 C.3          1    LIG   0.0000
   6 C6           5.7584    -1.6865    -0.6548 C.3          1    LIG   0.0000
   7 C7           6.4232    -0.3862    -1.0793 C.3          1    LIG   0.0000
   8 C8           5.7640     0.8467    -0.4738 C.3          1    LIG   0.0000
   9 S9           3.2910    -0.1753     0.2430 S.3          1    LIG   0.0000
  10 C10          2.2699     1.0000     1.0000 C.2          1    LIG   0.0000
  11 N11          1.0000     1.0000     1.0000 N.2          1    LIG   0.0000
  12 C12          0.2170    -0.1609     1.0000 C.ar         1    LIG   0.0000
  13 C13         -1.1700    -0.0556     1.0000 C.ar         1    LIG   0.0000
  14 C14         -1.9400    -1.2139     1.0007 C.ar         1    LIG   0.0000
  15 C15         -1.3220    -2.4608     1.0012 C.ar         1    LIG   0.0000
  16 C16          0.0658    -2.5567     1.0009 C.ar         1    LIG   0.0000
  17 C17          0.8433    -1.4029     1.0008 C.ar         1    LIG   0.0000
  18 H            2.7634     2.7640     2.1145 H            1    LIG   0.0000
  19 H            5.1039     2.4295     1.8962 H            1    LIG   0.0000
  20 H            4.9251    -0.7242     2.3580 H            1    LIG   0.0000
  21 H            6.4010    -0.1901     1.9075 H            1    LIG   0.0000
  22 H            5.0705    -2.5094     1.1184 H            1    LIG   0.0000
  23 H            6.6747    -2.2043     1.1305 H            1    LIG   0.0000
  24 H            4.8090    -1.6839    -0.9688 H            1    LIG   0.0000
  25 H            6.2459    -2.4527    -1.0736 H            1    LIG   0.0000
  26 H            7.3805    -0.4092    -0.7912 H            1    LIG   0.0000
  27 H            6.3766    -0.3152    -2.0757 H            1    LIG   0.0000
  28 H            6.4842     1.4762    -0.1823 H            1    LIG   0.0000
  29 H            5.2059     1.2826    -1.1799 H            1    LIG   0.0000
  30 H           -1.6088     0.8430     0.9995 H            1    LIG   0.0000
  31 H           -2.9380    -1.1508     1.0010 H            1    LIG   0.0000
  32 H           -1.8782    -3.2918     1.0017 H            1    LIG   0.0000
  33 H            0.5047    -3.4552     1.0007 H            1    LIG   0.0000
  34 H            1.8413    -1.4659     1.0013 H            1    LIG   0.0000
@<TRIPOS>BOND
   1        1        2 2
   2        2        3 1
   3        3        4 1
   4        4        5 1
   5        5        6 1
   6        6        7 1
   7        7        8 1
   8        8        3 1
   9        3        9 1
  10        9       10 1
  11       10        1 1
  12       10       11 2
  13       11       12 1
  14       12       13 ar
  15       13       14 ar
  16       14       15 ar
  17       15       16 ar
  18       16       17 ar
  19       17       12 ar
  20        1       18 1
  21        2       19 1
  22        4       20 1
  23        4       21 1
  24        5       22 1
  25        5       23 1
  26        6       24 1
  27        6       25 1
  28        7       26 1
  29        7       27 1
  30        8       28 1
  31        8       29 1
  32       13       30 1
  33       14       31 1
  34       15       32 1
  35       16       33 1
  36       17       34 1

@<TRIPOS>MOLECULE

  34   36
SMALL
USER_CHARGES
@<TRIPOS>ATOM
   1 C1           3.1356     1.9792     1.6188 C.2          1    LIG   0.0000
   2 C2           4.4402     1.7938     1.5020 C.2          1    LIG   0.0000
   3 C3           4.8698     0.5511     0.7294 C.3          1    LIG   0.0000
   4 C4           5.5233    -0.5385     1.5785 C.3          1    LIG   0.0000
   5 C5           5.7790    -1.8542     0.8564 C.3          1    LIG   0.0000
   6 C6           5.7584    -1.6865    -0.6548 C.3          1    LIG   0.0000
   7 C7           6.4232    -0.3862    -1.0793 C.3          1    LIG   0.0000
   8 C8           5.7640     0.8467    -0.4738 C.3          1    LIG   0.0000
   9 S9           3.2910    -0.1753     0.2430 S.3          1    LIG   0.0000
  10 C10          2.2699     1.0000     1.0000 C.2          1    LIG   0.0000
  11 N11          1.0000     1.0000     1.0000 N.2          1    LIG   0.0000
  12 C12          0.2170    -0.1609     1.0000 C.ar         1    LIG   0.0000
  13 C13         -0.1679    -0.7315    -0.2088 C.ar         1    LIG   0.0000
  14 C14         -0.9463    -1.8842    -0.1993 C.ar         1    LIG   0.0000
  15 C15         -1.3314    -2.4544     1.0102 C.ar         1    LIG   0.0000
  16 C16         -0.9417    -1.8771     2.2144 C.ar         1    LIG   0.0000
  17 C17         -0.1636    -0.7237     2.2138 C.ar         1    LIG   0.0000
  18 H            2.7634     2.7640     2.1145 H            1    LIG   0.0000
  19 H            5.1039     2.4295     1.8962 H            1    LIG   0.0000
  20 H            4.9251    -0.7242     2.3580 H            1    LIG   0.0000
  21 H            6.4010    -0.1901     1.9075 H            1    LIG   0.0000
  22 H            5.0705    -2.5094     1.1184 H            1    LIG   0.0000
  23 H            6.6747    -2.2043     1.1305 H            1    LIG   0.0000
  24 H            4.8090    -1.6839    -0.9688 H            1    LIG   0.0000
  25 H            6.2459    -2.4527    -1.0736 H            1    LIG   0.0000
  26 H            7.3805    -0.4092    -0.7912 H            1    LIG   0.0000
  27 H            6.3766    -0.3152    -2.0757 H            1    LIG   0.0000
  28 H            6.4842     1.4762    -0.1823 H            1    LIG   0.0000
  29 H            5.2059     1.2826    -1.1799 H            1    LIG   0.0000
  30 H            0.1119    -0.3176    -1.0750 H            1    LIG   0.0000
  31 H           -1.2293    -2.3033    -1.0620 H            1    LIG   0.0000
  32 H           -1.8910    -3.2832     1.0138 H            1    LIG   0.0000
  33 H           -1.2209    -2.2913     3.0807 H            1    LIG   0.0000
  34 H            0.1188    -0.3040     3.0764 H            1    LIG   0.0000
@<TRIPOS>BOND
   1        1        2 2
   2        2        3 1
   3        3        4 1
   4        4        5 1
   5        5        6 1
   6        6        7 1
   7        7        8 1
   8        8        3 1
   9        3        9 1
  10        9       10 1
  11       10        1 1
  12       10       11 2
  13       11       12 1
  14       12       13 ar
  15       13       14 ar
  16       14       15 ar
  17       15       16 ar
  18       16       17 ar
  19       17       12 ar
  20        1       18 1
  21        2       19 1
  22        4       20 1
  23        4       21 1
  24        5       22 1
  25        5       23 1
  26        6       24 1
  27        6       25 1
  28        7       26 1
  29        7       27 1
  30        8       28 1
  31        8       29 1
  32       13       30 1
  33       14       31 1
  34       15       32 1
  35       16       33 1
  36       17       34 1

@<TRIPOS>MOLECULE

  34   36
SMALL
USER_CHARGES
@<TRIPOS>ATOM
   1 C1           3.1403     0.8308    -0.1443 C.2          1    LIG   0.0000
   2 C2           4.4463     0.8692     0.0732 C.2          1    LIG   0.0000
   3 C3           4.8837     1.1010     1.5135 C.3          1    LIG   0.0000
   4 C4           5.6773     2.3755     1.7782 C.3          1    LIG   0.0000
   5 C5           6.3727     2.4294     3.1335 C.3          1    LIG   0.0000
   6 C6           5.7627     1.4761     4.1523 C.3          1    LIG   0.0000
   7 C7           5.9224     0.0561     3.6261 C.3          1    LIG   0.0000
   8 C8           5.6341    -0.0745     2.1356 C.3          1    LIG   0.0000
   9 S9           3.3009     1.2058     2.3745 S.3          1    LIG   0.0000
  10 C10          2.2675     1.0000     1.0000 C.2          1    LIG   0.0000
  11 N11          1.0000     1.0000     1.0000 N.2          1    LIG   0.0000
  12 C12          0.2170    -0.1609     1.0000 C.ar         1    LIG   0.0000
  13 C13         -1.1700    -0.0556     1.0000 C.ar         1    LIG   0.0000
  14 C14         -1.9400    -1.2139     1.0007 C.ar         1    LIG   0.0000
  15 C15         -1.3220    -2.4608     1.0012 C.ar         1    LIG   0.0000
  16 C16          0.0658    -2.5567     1.0009 C.ar         1    LIG   0.0000
  17 C17          0.8433    -1.4029     1.0008 C.ar         1    LIG   0.0000
  18 H            2.7708     0.6905    -1.0629 H            1    LIG   0.0000
  19 H            5.1083     0.7525    -0.6672 H            1    LIG   0.0000
  20 H            5.0481     3.1506     1.7211 H            1    LIG   0.0000
  21 H            6.3756     2.4598     1.0674 H            1    LIG   0.0000
  22 H            6.3060     3.3616     3.4892 H            1    LIG   0.0000
  23 H            7.3351     2.1886     3.0078 H            1    LIG   0.0000
  24 H            4.7924     1.6855     4.2738 H            1    LIG   0.0000
  25 H            6.2358     1.5682     5.0284 H            1    LIG   0.0000
  26 H            6.8627    -0.2400     3.7939 H            1    LIG   0.0000
  27 H            5.2917    -0.5391     4.1241 H            1    LIG   0.0000
  28 H            6.5077    -0.1712     1.6587 H            1    LIG   0.0000
  29 H            5.0859    -0.8994     1.9976 H            1    LIG   0.0000
  30 H           -1.6088     0.8430     0.9995 H            1    LIG   0.0000
  31 H           -2.9380    -1.1508     1.0010 H            1    LIG   0.0000
  32 H           -1.8782    -3.2918     1.0017 H            1    LIG   0.0000
  33 H            0.5047    -3.4552     1.0007 H            1    LIG   0.0000
  34 H            1.8413    -1.4659     1.0013 H            1    LIG   0.0000
@<TRIPOS>BOND
   1        1        2 2
   2        2        3 1
   3        3        4 1
   4        4        5 1
   5        5        6 1
   6        6        7 1
   7        7        8 1
   8        8        3 1
   9        3        9 1
  10        9       10 1
  11       10        1 1
  12       10       11 2
  13       11       12 1
  14       12       13 ar
  15       13       14 ar
  16       14       15 ar
  17       15       16 ar
  18       16       17 ar
  19       17       12 ar
  20        1       18 1
  21        2       19 1
  22        4       20 1
  23        4       21 1
  24        5       22 1
  25        5       23 1
  26        6       24 1
  27        6       25 1
  28        7       26 1
  29        7       27 1
  30        8       28 1
  31        8       29 1
  32       13       30 1
  33       14       31 1
  34       15       32 1
  35       16       33 1
  36       17       34 1

@<TRIPOS>MOLECULE

  34   36
SMALL
USER_CHARGES
@<TRIPOS>ATOM
   1 C1           3.1403     0.8308    -0.1443 C.2          1    LIG   0.0000
   2 C2           4.4463     0.8692     0.0732 C.2          1    LIG   0.0000
   3 C3           4.8837     1.1010     1.5135 C.3          1    LIG   0.0000
   4 C4           5.6773     2.3755     1.7782 C.3          1    LIG   0.0000
   5 C5           6.3727     2.4294     3.1335 C.3          1    LIG   0.0000
   6 C6           5.7627     1.4761     4.1523 C.3          1    LIG   0.0000
   7 C7           5.9224     0.0561     3.6261 C.3          1    LIG   0.0000
   8 C8           5.6341    -0.0745     2.1356 C.3          1    LIG   0.0000
   9 S9           3.3009     1.2058     2.3745 S.3          1    LIG   0.0000
  10 C10          2.2675     1.0000     1.0000 C.2          1    LIG   0.0000
  11 N11          1.0000     1.0000     1.0000 N.2          1    LIG   0.0000
  12 C12          0.2170    -0.1609     1.0000 C.ar         1    LIG   0.0000
  13 C13         -0.1679    -0.7315    -0.2088 C.ar         1    LIG   0.0000
  14 C14         -0.9463    -1.8842    -0.1993 C.ar         1    LIG   0.0000
  15 C15         -1.3314    -2.4544     1.0102 C.ar         1    LIG   0.0000
  16 C16         -0.9417    -1.8771     2.2144 C.ar         1    LIG   0.0000
  17 C17         -0.1636    -0.7237     2.2138 C.ar         1    LIG   0.0000
  18 H            2.7708     0.6905    -1.0629 H            1    LIG   0.0000
  19 H            5.1083     0.7525    -0.6672 H            1    LIG   0.0000
  20 H            5.0481     3.1506     1.7211 H            1    LIG   0.0000
  21 H            6.3756     2.4598     1.0674 H            1    LIG   0.0000
  22 H            6.3060     3.3616     3.4892 H            1    LIG   0.0000
  23 H            7.3351     2.1886     3.0078 H            1    LIG   0.0000
  24 H            4.7924     1.6855     4.2738 H            1    LIG   0.0000
  25 H            6.2358     1.5682     5.0284 H            1    LIG   0.0000
  26 H            6.8627    -0.2400     3.7939 H            1    LIG   0.0000
  27 H            5.2917    -0.5391     4.1241 H            1    LIG   0.0000
  28 H            6.5077    -0.1712     1.6587 H            1    LIG   0.0000
  29 H            5.0859    -0.8994     1.9976 H            1    LIG   0.0000
  30 H            0.1119    -0.3176    -1.0750 H            1    LIG   0.0000
  31 H           -1.2293    -2.3033    -1.0620 H            1    LIG   0.0000
  32 H           -1.8910    -3.2832     1.0138 H            1    LIG   0.0000
  33 H           -1.2209    -2.2913     3.0807 H            1    LIG   0.0000
  34 H            0.1188    -0.3040     3.0764 H            1    LIG   0.0000
@<TRIPOS>BOND
   1        1        2 2
   2        2        3 1
   3        3        4 1
   4        4        5 1
   5        5        6 1
   6        6        7 1
   7        7        8 1
   8        8        3 1
   9        3        9 1
  10        9       10 1
  11       10        1 1
  12       10       11 2
  13       11       12 1
  14       12       13 ar
  15       13       14 ar
  16       14       15 ar
  17       15       16 ar
  18       16       17 ar
  19       17       12 ar
  20        1       18 1
  21        2       19 1
  22        4       20 1
  23        4       21 1
  24        5       22 1
  25        5       23 1
  26        6       24 1
  27        6       25 1
  28        7       26 1
  29        7       27 1
  30        8       28 1
  31        8       29 1
  32       13       30 1
  33       14       31 1
  34       15       32 1
  35       16       33 1
  36       17       34 1

@<TRIPOS>MOLECULE

  34   36
SMALL
USER_CHARGES
@<TRIPOS>ATOM
   1 C1           3.1374     1.7183     1.9015 C.2          1    LIG   0.0000
   2 C2           4.4456     1.5857     1.7234 C.2          1    LIG   0.0000
   3 C3           4.8625     0.6599     0.6001 C.3          1    LIG   0.0000
   4 C4           5.5022    -0.6626     1.0074 C.3          1    LIG   0.0000
   5 C5           5.8580    -1.5820    -0.1538 C.3          1    LIG   0.0000
   6 C6           6.2818    -0.8175    -1.3981 C.3          1    LIG   0.0000
   7 C7           6.7880     0.5796    -1.0619 C.3          1    LIG   0.0000
   8 C8           5.7355     1.4325    -0.3703 C.3          1    LIG   0.0000
   9 S9           3.2870     0.1251    -0.0995 S.3          1    LIG   0.0000
  10 C10          2.2732     1.0000     1.0000 C.2          1    LIG   0.0000
  11 N11          1.0000     1.0000     1.0000 N.2          1    LIG   0.0000
  12 C12          0.2170    -0.1609     1.0000 C.ar         1    LIG   0.0000
  13 C13         -1.1700    -0.0556     1.0000 C.ar         1    LIG   0.0000
  14 C14         -1.9400    -1.2139     1.0007 C.ar         1    LIG   0.0000
  15 C15         -1.3220    -2.4608     1.0012 C.ar         1    LIG   0.0000
  16 C16          0.0658    -2.5567     1.0009 C.ar         1    LIG   0.0000
  17 C17          0.8433    -1.4029     1.0008 C.ar         1    LIG   0.0000
  18 H            2.7667     2.2930     2.6311 H            1    LIG   0.0000
  19 H            5.1124     2.0657     2.2936 H            1    LIG   0.0000
  20 H            4.8624    -1.1474     1.6038 H            1    LIG   0.0000
  21 H            6.3410    -0.4602     1.5128 H            1    LIG   0.0000
  22 H            5.0584    -2.1392    -0.3775 H            1    LIG   0.0000
  23 H            6.6107    -2.1770     0.1281 H            1    LIG   0.0000
  24 H            5.4962    -0.7377    -2.0117 H            1    LIG   0.0000
  25 H            7.0122    -1.3245    -1.8558 H            1    LIG   0.0000
  26 H            7.5804     0.4963    -0.4576 H            1    LIG   0.0000
  27 H            7.0617     1.0337    -1.9098 H            1    LIG   0.0000
  28 H            6.2007     2.1597     0.1344 H            1    LIG   0.0000
  29 H            5.1471     1.8367    -1.0707 H            1    LIG   0.0000
  30 H           -1.6088     0.8430     0.9995 H            1    LIG   0.0000
  31 H           -2.9380    -1.1508     1.0010 H            1    LIG   0.0000
  32 H           -1.8782    -3.2918     1.0017 H            1    LIG   0.0000
  33 H            0.5047    -3.4552     1.0007 H            1    LIG   0.0000
  34 H            1.8413    -1.4659     1.0013 H            1    LIG   0.0000
@<TRIPOS>BOND
   1        1        2 2
   2        2        3 1
   3        3        4 1
   4        4        5 1
   5        5        6 1
   6        6        7 1
   7        7        8 1
   8        8        3 1
   9        3        9 1
  10        9       10 1
  11       10        1 1
  12       10       11 2
  13       11       12 1
  14       12       13 ar
  15       13       14 ar
  16       14       15 ar
  17       15       16 ar
  18       16       17 ar
  19       17       12 ar
  20        1       18 1
  21        2       19 1
  22        4       20 1
  23        4       21 1
  24        5       22 1
  25        5       23 1
  26        6       24 1
  27        6       25 1
  28        7       26 1
  29        7       27 1
  30        8       28 1
  31        8       29 1
  32       13       30 1
  33       14       31 1
  34       15       32 1
  35       16       33 1
  36       17       34 1

@<TRIPOS>MOLECULE

  34   36
SMALL
USER_CHARGES
@<TRIPOS>ATOM
   1 C1           3.1374     1.7183     1.9015 C.2          1    LIG   0.0000
   2 C2           4.4456     1.5857     1.7234 C.2          1    LIG   0.0000
   3 C3           4.8625     0.6599     0.6001 C.3          1    LIG   0.0000
   4 C4           5.5022    -0.6626     1.0074 C.3          1    LIG   0.0000
   5 C5           5.8580    -1.5820    -0.1538 C.3          1    LIG   0.0000
   6 C6           6.2818    -0.8175    -1.3981 C.3          1    LIG   0.0000
   7 C7           6.7880     0.5796    -1.0619 C.3          1    LIG   0.0000
   8 C8           5.7355     1.4325    -0.3703 C.3          1    LIG   0.0000
   9 S9           3.2870     0.1251    -0.0995 S.3          1    LIG   0.0000
  10 C10          2.2732     1.0000     1.0000 C.2          1    LIG   0.0000
  11 N11          1.0000     1.0000     1.0000 N.2          1    LIG   0.0000
  12 C12          0.2170    -0.1609     1.0000 C.ar         1    LIG   0.0000
  13 C13         -0.1679    -0.7315    -0.2088 C.ar         1    LIG   0.0000
  14 C14         -0.9463    -1.8842    -0.1993 C.ar         1    LIG   0.0000
  15 C15         -1.3314    -2.4544     1.0102 C.ar         1    LIG   0.0000
  16 C16         -0.9417    -1.8771     2.2144 C.ar         1    LIG   0.0000
  17 C17         -0.1636    -0.7237     2.2138 C.ar         1    LIG   0.0000
  18 H            2.7667     2.2930     2.6311 H            1    LIG   0.0000
  19 H            5.1124     2.0657     2.2936 H            1    LIG   0.0000
  20 H            4.8624    -1.1474     1.6038 H            1    LIG   0.0000
  21 H            6.3410    -0.4602     1.5128 H            1    LIG   0.0000
  22 H            5.0584    -2.1392    -0.3775 H            1    LIG   0.0000
  23 H            6.6107    -2.1770     0.1281 H            1    LIG   0.0000
  24 H            5.4962    -0.7377    -2.0117 H            1    LIG   0.0000
  25 H            7.0122    -1.3245    -1.8558 H            1    LIG   0.0000
  26 H            7.5804     0.4963    -0.4576 H            1    LIG   0.0000
  27 H            7.0617     1.0337    -1.9098 H            1    LIG   0.0000
  28 H            6.2007     2.1597     0.1344 H            1    LIG   0.0000
  29 H            5.1471     1.8367    -1.0707 H            1    LIG   0.0000
  30 H            0.1119    -0.3176    -1.0750 H            1    LIG   0.0000
  31 H           -1.2293    -2.3033    -1.0620 H            1    LIG   0.0000
  32 H           -1.8910    -3.2832     1.0138 H            1    LIG   0.0000
  33 H           -1.2209    -2.2913     3.0807 H            1    LIG   0.0000
  34 H            0.1188    -0.3040     3.0764 H            1    LIG   0.0000
@<TRIPOS>BOND
   1        1        2 2
   2        2        3 1
   3        3        4 1
   4        4        5 1
   5        5        6 1
   6        6        7 1
   7        7        8 1
   8        8        3 1
   9        3        9 1
  10        9       10 1
  11       10        1 1
  12       10       11 2
  13       11       12 1
  14       12       13 ar
  15       13       14 ar
  16       14       15 ar
  17       15       16 ar
  18       16       17 ar
  19       17       12 ar
  20        1       18 1
  21        2       19 1
  22        4       20 1
  23        4       21 1
  24        5       22 1
  25        5       23 1
  26        6       24 1
  27        6       25 1
  28        7       26 1
  29        7       27 1
  30        8       28 1
  31        8       29 1
  32       13       30 1
  33       14       31 1
  34       15       32 1
  35       16       33 1
  36       17       34 1

