@<TRIPOS>MOLECULE
*****
 34 36 0 0 0
SMALL
USER_CHARGES

@<TRIPOS>ATOM
      1 C1          3.1376    1.1500   -0.1425 C.2     1  LIG1        0.0000
      2 C2          4.4445    1.1213    0.0876 C.2     1  LIG1        0.0000
      3 C3          4.8836    0.9372    1.5364 C.3     1  LIG1        0.0000
      4 C4          5.5633    2.1103    2.2337 C.3     1  LIG1        0.0000
      5 C5          5.8326    1.8813    3.7150 C.3     1  LIG1        0.0000
      6 C6          6.5268    0.5518    3.9816 C.3     1  LIG1        0.0000
      7 C7          5.8429   -0.6295    3.3080 C.3     1  LIG1        0.0000
      8 C8          5.5854   -0.3847    1.8270 C.3     1  LIG1        0.0000
      9 S9          3.2959    0.8242    2.3845 S.3     1  LIG1        0.0000
     10 C10         2.2707    1.0000    1.0000 C.2     1  LIG1        0.0000
     11 N11         1.0000    1.0000    1.0000 N.2     1  LIG1        0.0000
     12 C12         0.2170   -0.1609    1.0000 C.ar    1  LIG1        0.0000
     13 C13        -1.1700   -0.0556    1.0000 C.ar    1  LIG1        0.0000
     14 C14        -1.9400   -1.2139    1.0007 C.ar    1  LIG1        0.0000
     15 C15        -1.3220   -2.4608    1.0012 C.ar    1  LIG1        0.0000
     16 C16         0.0658   -2.5567    1.0009 C.ar    1  LIG1        0.0000
     17 C17         0.8433   -1.4029    1.0008 C.ar    1  LIG1        0.0000
     18 H           2.7712    1.2700   -1.0652 H       1  LIG1        0.0000
     19 H           5.1092    1.2159   -0.6535 H       1  LIG1        0.0000
     20 H           4.9751    2.9138    2.1419 H       1  LIG1        0.0000
     21 H           6.4369    2.2828    1.7787 H       1  LIG1        0.0000
     22 H           4.9610    1.8922    4.2051 H       1  LIG1        0.0000
     23 H           6.4146    2.6208    4.0535 H       1  LIG1        0.0000
     24 H           6.5378    0.3917    4.9686 H       1  LIG1        0.0000
     25 H           7.4658    0.6105    3.6429 H       1  LIG1        0.0000
     26 H           6.4269   -1.4356    3.4033 H       1  LIG1        0.0000
     27 H           4.9680   -0.7961    3.7627 H       1  LIG1        0.0000
     28 H           6.4639   -0.3872    1.3493 H       1  LIG1        0.0000
     29 H           5.0145   -1.1282    1.4789 H       1  LIG1        0.0000
     30 H          -1.6088    0.8430    0.9995 H       1  LIG1        0.0000
     31 H          -2.9380   -1.1508    1.0010 H       1  LIG1        0.0000
     32 H          -1.8782   -3.2918    1.0017 H       1  LIG1        0.0000
     33 H           0.5047   -3.4552    1.0007 H       1  LIG1        0.0000
     34 H           1.8413   -1.4659    1.0013 H       1  LIG1        0.0000
@<TRIPOS>BOND
     1     1     2    2
     2     2     3    1
     3     3     4    1
     4     4     5    1
     5     5     6    1
     6     6     7    1
     7     7     8    1
     8     8     3    1
     9     3     9    1
    10     9    10    1
    11    10     1    1
    12    10    11    2
    13    11    12    1
    14    12    13   ar
    15    13    14   ar
    16    14    15   ar
    17    15    16   ar
    18    16    17   ar
    19    17    12   ar
    20     1    18    1
    21     2    19    1
    22     4    20    1
    23     4    21    1
    24     5    22    1
    25     5    23    1
    26     6    24    1
    27     6    25    1
    28     7    26    1
    29     7    27    1
    30     8    28    1
    31     8    29    1
    32    13    30    1
    33    14    31    1
    34    15    32    1
    35    16    33    1
    36    17    34    1
