@<TRIPOS>MOLECULE
*****
 34 36 0 0 0
SMALL
USER_CHARGES

@<TRIPOS>ATOM
      1 C1          3.1374    1.7183    1.9015 C.2     1  LIG1        0.0000
      2 C2          4.4456    1.5857    1.7234 C.2     1  LIG1        0.0000
      3 C3          4.8625    0.6599    0.6001 C.3     1  LIG1        0.0000
      4 C4          5.5022   -0.6626    1.0074 C.3     1  LIG1        0.0000
      5 C5          5.8580   -1.5820   -0.1538 C.3     1  LIG1        0.0000
      6 C6          6.2818   -0.8175   -1.3981 C.3     1  LIG1        0.0000
      7 C7          6.7880    0.5796   -1.0619 C.3     1  LIG1        0.0000
      8 C8          5.7355    1.4325   -0.3703 C.3     1  LIG1        0.0000
      9 S9          3.2870    0.1251   -0.0995 S.3     1  LIG1        0.0000
     10 C10         2.2732    1.0000    1.0000 C.2     1  LIG1        0.0000
     11 N11         1.0000    1.0000    1.0000 N.2     1  LIG1        0.0000
     12 C12         0.2170   -0.1609    1.0000 C.ar    1  LIG1        0.0000
     13 C13        -1.1700   -0.0556    1.0000 C.ar    1  LIG1        0.0000
     14 C14        -1.9400   -1.2139    1.0007 C.ar    1  LIG1        0.0000
     15 C15        -1.3220   -2.4608    1.0012 C.ar    1  LIG1        0.0000
     16 C16         0.0658   -2.5567    1.0009 C.ar    1  LIG1        0.0000
     17 C17         0.8433   -1.4029    1.0008 C.ar    1  LIG1        0.0000
     18 H           2.7667    2.2930    2.6311 H       1  LIG1        0.0000
     19 H           5.1124    2.0657    2.2936 H       1  LIG1        0.0000
     20 H           4.8624   -1.1474    1.6038 H       1  LIG1        0.0000
     21 H           6.3410   -0.4602    1.5128 H       1  LIG1        0.0000
     22 H           5.0584   -2.1392   -0.3775 H       1  LIG1        0.0000
     23 H           6.6107   -2.1770    0.1281 H       1  LIG1        0.0000
     24 H           5.4962   -0.7377   -2.0117 H       1  LIG1        0.0000
     25 H           7.0122   -1.3245   -1.8558 H       1  LIG1        0.0000
     26 H           7.5804    0.4963   -0.4576 H       1  LIG1        0.0000
     27 H           7.0617    1.0337   -1.9098 H       1  LIG1        0.0000
     28 H           6.2007    2.1597    0.1344 H       1  LIG1        0.0000
     29 H           5.1471    1.8367   -1.0707 H       1  LIG1        0.0000
     30 H          -1.6088    0.8430    0.9995 H       1  LIG1        0.0000
     31 H          -2.9380   -1.1508    1.0010 H       1  LIG1        0.0000
     32 H          -1.8782   -3.2918    1.0017 H       1  LIG1        0.0000
     33 H           0.5047   -3.4552    1.0007 H       1  LIG1        0.0000
     34 H           1.8413   -1.4659    1.0013 H       1  LIG1        0.0000
@<TRIPOS>BOND
     1     1     2    2
     2     2     3    1
     3     3     4    1
     4     4     5    1
     5     5     6    1
     6     6     7    1
     7     7     8    1
     8     8     3    1
     9     3     9    1
    10     9    10    1
    11    10     1    1
    12    10    11    2
    13    11    12    1
    14    12    13   ar
    15    13    14   ar
    16    14    15   ar
    17    15    16   ar
    18    16    17   ar
    19    17    12   ar
    20     1    18    1
    21     2    19    1
    22     4    20    1
    23     4    21    1
    24     5    22    1
    25     5    23    1
    26     6    24    1
    27     6    25    1
    28     7    26    1
    29     7    27    1
    30     8    28    1
    31     8    29    1
    32    13    30    1
    33    14    31    1
    34    15    32    1
    35    16    33    1
    36    17    34    1
