@<TRIPOS>MOLECULE
*****
 34 36 0 0 0
SMALL
USER_CHARGES

@<TRIPOS>ATOM
      1 C1          3.1356    1.9792    1.6188 C.2     1  LIG1        0.0000
      2 C2          4.4402    1.7938    1.5020 C.2     1  LIG1        0.0000
      3 C3          4.8698    0.5511    0.7294 C.3     1  LIG1        0.0000
      4 C4          5.5233   -0.5385    1.5785 C.3     1  LIG1        0.0000
      5 C5          5.7790   -1.8542    0.8564 C.3     1  LIG1        0.0000
      6 C6          5.7584   -1.6865   -0.6548 C.3     1  LIG1        0.0000
      7 C7          6.4232   -0.3862   -1.0793 C.3     1  LIG1        0.0000
      8 C8          5.7640    0.8467   -0.4738 C.3     1  LIG1        0.0000
      9 S9          3.2910   -0.1753    0.2430 S.3     1  LIG1        0.0000
     10 C10         2.2699    1.0000    1.0000 C.2     1  LIG1        0.0000
     11 N11         1.0000    1.0000    1.0000 N.2     1  LIG1        0.0000
     12 C12         0.2170   -0.1609    1.0000 C.ar    1  LIG1        0.0000
     13 C13        -0.1679   -0.7315   -0.2088 C.ar    1  LIG1        0.0000
     14 C14        -0.9463   -1.8842   -0.1993 C.ar    1  LIG1        0.0000
     15 C15        -1.3314   -2.4544    1.0102 C.ar    1  LIG1        0.0000
     16 C16        -0.9417   -1.8771    2.2144 C.ar    1  LIG1        0.0000
     17 C17        -0.1636   -0.7237    2.2138 C.ar    1  LIG1        0.0000
     18 H           2.7634    2.7640    2.1145 H       1  LIG1        0.0000
     19 H           5.1039    2.4295    1.8962 H       1  LIG1        0.0000
     20 H           4.9251   -0.7242    2.3580 H       1  LIG1        0.0000
     21 H           6.4010   -0.1901    1.9075 H       1  LIG1        0.0000
     22 H           5.0705   -2.5094    1.1184 H       1  LIG1        0.0000
     23 H           6.6747   -2.2043    1.1305 H       1  LIG1        0.0000
     24 H           4.8090   -1.6839   -0.9688 H       1  LIG1        0.0000
     25 H           6.2459   -2.4527   -1.0736 H       1  LIG1        0.0000
     26 H           7.3805   -0.4092   -0.7912 H       1  LIG1        0.0000
     27 H           6.3766   -0.3152   -2.0757 H       1  LIG1        0.0000
     28 H           6.4842    1.4762   -0.1823 H       1  LIG1        0.0000
     29 H           5.2059    1.2826   -1.1799 H       1  LIG1        0.0000
     30 H           0.1119   -0.3176   -1.0750 H       1  LIG1        0.0000
     31 H          -1.2293   -2.3033   -1.0620 H       1  LIG1        0.0000
     32 H          -1.8910   -3.2832    1.0138 H       1  LIG1        0.0000
     33 H          -1.2209   -2.2913    3.0807 H       1  LIG1        0.0000
     34 H           0.1188   -0.3040    3.0764 H       1  LIG1        0.0000
@<TRIPOS>BOND
     1     1     2    2
     2     2     3    1
     3     3     4    1
     4     4     5    1
     5     5     6    1
     6     6     7    1
     7     7     8    1
     8     8     3    1
     9     3     9    1
    10     9    10    1
    11    10     1    1
    12    10    11    2
    13    11    12    1
    14    12    13   ar
    15    13    14   ar
    16    14    15   ar
    17    15    16   ar
    18    16    17   ar
    19    17    12   ar
    20     1    18    1
    21     2    19    1
    22     4    20    1
    23     4    21    1
    24     5    22    1
    25     5    23    1
    26     6    24    1
    27     6    25    1
    28     7    26    1
    29     7    27    1
    30     8    28    1
    31     8    29    1
    32    13    30    1
    33    14    31    1
    34    15    32    1
    35    16    33    1
    36    17    34    1
