@<TRIPOS>MOLECULE
*****
 34 36 0 0 0
SMALL
USER_CHARGES

@<TRIPOS>ATOM
      1 C1          3.1403    0.8308   -0.1443 C.2     1  LIG1        0.0000
      2 C2          4.4463    0.8692    0.0732 C.2     1  LIG1        0.0000
      3 C3          4.8837    1.1010    1.5135 C.3     1  LIG1        0.0000
      4 C4          5.6773    2.3755    1.7782 C.3     1  LIG1        0.0000
      5 C5          6.3727    2.4294    3.1335 C.3     1  LIG1        0.0000
      6 C6          5.7627    1.4761    4.1523 C.3     1  LIG1        0.0000
      7 C7          5.9224    0.0561    3.6261 C.3     1  LIG1        0.0000
      8 C8          5.6341   -0.0745    2.1356 C.3     1  LIG1        0.0000
      9 S9          3.3009    1.2058    2.3745 S.3     1  LIG1        0.0000
     10 C10         2.2675    1.0000    1.0000 C.2     1  LIG1        0.0000
     11 N11         1.0000    1.0000    1.0000 N.2     1  LIG1        0.0000
     12 C12         0.2170   -0.1609    1.0000 C.ar    1  LIG1        0.0000
     13 C13        -0.1679   -0.7315   -0.2088 C.ar    1  LIG1        0.0000
     14 C14        -0.9463   -1.8842   -0.1993 C.ar    1  LIG1        0.0000
     15 C15        -1.3314   -2.4544    1.0102 C.ar    1  LIG1        0.0000
     16 C16        -0.9417   -1.8771    2.2144 C.ar    1  LIG1        0.0000
     17 C17        -0.1636   -0.7237    2.2138 C.ar    1  LIG1        0.0000
     18 H           2.7708    0.6905   -1.0629 H       1  LIG1        0.0000
     19 H           5.1083    0.7525   -0.6672 H       1  LIG1        0.0000
     20 H           5.0481    3.1506    1.7211 H       1  LIG1        0.0000
     21 H           6.3756    2.4598    1.0674 H       1  LIG1        0.0000
     22 H           6.3060    3.3616    3.4892 H       1  LIG1        0.0000
     23 H           7.3351    2.1886    3.0078 H       1  LIG1        0.0000
     24 H           4.7924    1.6855    4.2738 H       1  LIG1        0.0000
     25 H           6.2358    1.5682    5.0284 H       1  LIG1        0.0000
     26 H           6.8627   -0.2400    3.7939 H       1  LIG1        0.0000
     27 H           5.2917   -0.5391    4.1241 H       1  LIG1        0.0000
     28 H           6.5077   -0.1712    1.6587 H       1  LIG1        0.0000
     29 H           5.0859   -0.8994    1.9976 H       1  LIG1        0.0000
     30 H           0.1119   -0.3176   -1.0750 H       1  LIG1        0.0000
     31 H          -1.2293   -2.3033   -1.0620 H       1  LIG1        0.0000
     32 H          -1.8910   -3.2832    1.0138 H       1  LIG1        0.0000
     33 H          -1.2209   -2.2913    3.0807 H       1  LIG1        0.0000
     34 H           0.1188   -0.3040    3.0764 H       1  LIG1        0.0000
@<TRIPOS>BOND
     1     1     2    2
     2     2     3    1
     3     3     4    1
     4     4     5    1
     5     5     6    1
     6     6     7    1
     7     7     8    1
     8     8     3    1
     9     3     9    1
    10     9    10    1
    11    10     1    1
    12    10    11    2
    13    11    12    1
    14    12    13   ar
    15    13    14   ar
    16    14    15   ar
    17    15    16   ar
    18    16    17   ar
    19    17    12   ar
    20     1    18    1
    21     2    19    1
    22     4    20    1
    23     4    21    1
    24     5    22    1
    25     5    23    1
    26     6    24    1
    27     6    25    1
    28     7    26    1
    29     7    27    1
    30     8    28    1
    31     8    29    1
    32    13    30    1
    33    14    31    1
    34    15    32    1
    35    16    33    1
    36    17    34    1
