@<TRIPOS>MOLECULE

  64   68
SMALL
USER_CHARGES
@<TRIPOS>ATOM
   1 C1           8.7737     7.1328    -4.4737 C.3          1    LIG   0.0000
   2 O2           7.3853     7.4073    -4.3576 O.3          1    LIG   0.0000
   3 C3           6.6712     6.5037    -3.6535 C.ar         1    LIG   0.0000
   4 C4           5.3027     6.6859    -3.4847 C.ar         1    LIG   0.0000
   5 C5           4.5617     5.7574    -2.7609 C.ar         1    LIG   0.0000
   6 C6           5.2062     4.6526    -2.2144 C.ar         1    LIG   0.0000
   7 C7           4.4024     3.6335    -1.4230 C.3          1    LIG   0.0000
   8 C8           4.3817     4.0329     0.0434 C.3          1    LIG   0.0000
   9 N9           3.6030     3.0457     0.8101 N.am         1    LIG   0.0000
  10 C10          2.2383     3.1016     1.0561 C.2          1    LIG   0.0000
  11 O11          1.4734     3.9743     0.6855 O.2          1    LIG   0.0000
  12 C12          1.8804     1.8804     1.8804 C.3          1    LIG   0.0000
  13 C13          1.0000     1.0000     1.0000 C.3          1    LIG   0.0000
  14 C14         -0.3486     1.6719     0.7992 C.2          1    LIG   0.0000
  15 O15         -0.5705     2.7359     1.3077 O.2          1    LIG   0.0000
  16 N16         -1.3107     1.0627     0.0375 N.am         1    LIG   0.0000
  17 C17         -2.5527     1.6814    -0.1475 C.ar         1    LIG   0.0000
  18 C18         -3.7117     0.9119    -0.1292 C.ar         1    LIG   0.0000
  19 C19         -4.9417     1.5352    -0.3128 C.ar         1    LIG   0.0000
  20 C20         -5.0019     2.9107    -0.5107 C.ar         1    LIG   0.0000
  21 N21         -6.2453     3.5288    -0.6938 N.am         1    LIG   0.0000
  22 C22         -6.3149     4.8830    -0.8895 C.2          1    LIG   0.0000
  23 C23         -7.6197     5.6211    -0.6381 C.3          1    LIG   0.0000
  24 O24         -5.3458     5.4864    -1.2593 O.2          1    LIG   0.0000
  25 C25         -3.8381     3.6715    -0.5268 C.ar         1    LIG   0.0000
  26 C26         -2.6034     3.0573    -0.3451 C.ar         1    LIG   0.0000
  27 N27          3.1674     1.1807     2.0388 N.pl3        1    LIG   0.0000
  28 C28          4.1136     1.8968     1.4217 C.2          1    LIG   0.0000
  29 N29          5.2575     1.2761     1.5918 N.2          1    LIG   0.0000
  30 C30          5.0704     0.1273     2.3034 C.ar         1    LIG   0.0000
  31 C31          5.9617    -0.8494     2.7283 C.ar         1    LIG   0.0000
  32 C32          5.5198    -1.9487     3.4559 C.ar         1    LIG   0.0000
  33 C33          4.1645    -2.0527     3.7516 C.ar         1    LIG   0.0000
  34 C34          3.2959    -1.0549     3.3128 C.ar         1    LIG   0.0000
  35 C35          3.7307     0.0523     2.5850 C.ar         1    LIG   0.0000
  36 C36          6.5749     4.4707    -2.3832 C.ar         1    LIG   0.0000
  37 C37          7.3160     5.3993    -3.1067 C.ar         1    LIG   0.0000
  38 H            1.4518     2.1113     2.7539 H            1    LIG   0.0000
  39 H            9.2125     7.8545    -5.0090 H            1    LIG   0.0000
  40 H            9.1838     7.0976    -3.5624 H            1    LIG   0.0000
  41 H            8.9025     6.2531    -4.9314 H            1    LIG   0.0000
  42 H            4.8515     7.4842    -3.8836 H            1    LIG   0.0000
  43 H            3.5776     5.8827    -2.6350 H            1    LIG   0.0000
  44 H            4.8235     2.7313    -1.5168 H            1    LIG   0.0000
  45 H            3.4663     3.6025    -1.7734 H            1    LIG   0.0000
  46 H            5.3178     4.0639     0.3938 H            1    LIG   0.0000
  47 H            3.9606     4.9351     0.1372 H            1    LIG   0.0000
  48 H            1.4420     0.8679     0.1128 H            1    LIG   0.0000
  49 H            0.8679     0.1128     1.4420 H            1    LIG   0.0000
  50 H           -1.1258     0.1760    -0.3863 H            1    LIG   0.0000
  51 H           -3.6612    -0.0765     0.0139 H            1    LIG   0.0000
  52 H           -5.7827     0.9943    -0.3024 H            1    LIG   0.0000
  53 H           -7.0823     2.9817    -0.6816 H            1    LIG   0.0000
  54 H           -8.3177     4.9712    -0.3375 H            1    LIG   0.0000
  55 H           -7.4803     6.3124     0.0709 H            1    LIG   0.0000
  56 H           -7.9193     6.0653    -1.4825 H            1    LIG   0.0000
  57 H           -3.8888     4.6600    -0.6691 H            1    LIG   0.0000
  58 H           -1.7625     3.5983    -0.3563 H            1    LIG   0.0000
  59 H            6.9331    -0.7608     2.5083 H            1    LIG   0.0000
  60 H            6.1635    -2.6507     3.7605 H            1    LIG   0.0000
  61 H            3.8180    -2.8330     4.2723 H            1    LIG   0.0000
  62 H            2.3228    -1.1362     3.5282 H            1    LIG   0.0000
  63 H            7.0261     3.6724    -1.9844 H            1    LIG   0.0000
  64 H            8.3002     5.2743    -3.2321 H            1    LIG   0.0000
@<TRIPOS>BOND
   1        1        2 1
   2        2        3 1
   3        3        4 ar
   4        4        5 ar
   5        5        6 ar
   6        6        7 1
   7        7        8 1
   8        8        9 1
   9        9       10 am
  10       10       11 2
  11       10       12 1
  12       12       13 1
  13       13       14 1
  14       14       15 2
  15       14       16 am
  16       16       17 1
  17       17       18 ar
  18       18       19 ar
  19       19       20 ar
  20       20       21 1
  21       21       22 am
  22       22       23 1
  23       22       24 2
  24       20       25 ar
  25       25       26 ar
  26       26       17 ar
  27       12       27 1
  28       27       28 1
  29       28        9 1
  30       28       29 2
  31       29       30 1
  32       30       31 ar
  33       31       32 ar
  34       32       33 ar
  35       33       34 ar
  36       34       35 ar
  37       35       30 ar
  38       35       27 1
  39        6       36 ar
  40       36       37 ar
  41       37        3 ar
  42       12       38 1
  43        1       39 1
  44        1       40 1
  45        1       41 1
  46        4       42 1
  47        5       43 1
  48        7       44 1
  49        7       45 1
  50        8       46 1
  51        8       47 1
  52       13       48 1
  53       13       49 1
  54       16       50 1
  55       18       51 1
  56       19       52 1
  57       21       53 1
  58       23       54 1
  59       23       55 1
  60       23       56 1
  61       25       57 1
  62       26       58 1
  63       31       59 1
  64       32       60 1
  65       33       61 1
  66       34       62 1
  67       36       63 1
  68       37       64 1

@<TRIPOS>MOLECULE

  64   68
SMALL
USER_CHARGES
@<TRIPOS>ATOM
   1 C1           8.7737     7.1328    -4.4737 C.3          1    LIG   0.0000
   2 O2           7.3853     7.4073    -4.3576 O.3          1    LIG   0.0000
   3 C3           6.6712     6.5037    -3.6535 C.ar         1    LIG   0.0000
   4 C4           5.3027     6.6859    -3.4847 C.ar         1    LIG   0.0000
   5 C5           4.5617     5.7574    -2.7609 C.ar         1    LIG   0.0000
   6 C6           5.2062     4.6526    -2.2144 C.ar         1    LIG   0.0000
   7 C7           4.4024     3.6335    -1.4230 C.3          1    LIG   0.0000
   8 C8           4.3817     4.0329     0.0434 C.3          1    LIG   0.0000
   9 N9           3.6030     3.0457     0.8101 N.am         1    LIG   0.0000
  10 C10          2.2383     3.1016     1.0561 C.2          1    LIG   0.0000
  11 O11          1.4734     3.9743     0.6855 O.2          1    LIG   0.0000
  12 C12          1.8804     1.8804     1.8804 C.3          1    LIG   0.0000
  13 C13          1.0000     1.0000     1.0000 C.3          1    LIG   0.0000
  14 C14         -0.3486     1.6719     0.7992 C.2          1    LIG   0.0000
  15 O15         -0.4314     2.6618     0.1260 O.2          1    LIG   0.0000
  16 N16         -1.4695     1.1472     1.3866 N.am         1    LIG   0.0000
  17 C17         -2.6046     1.9464     1.5667 C.ar         1    LIG   0.0000
  18 C18         -3.0932     2.1642     2.8511 C.ar         1    LIG   0.0000
  19 C19         -4.2210     2.9606     3.0209 C.ar         1    LIG   0.0000
  20 C20         -4.8450     3.5279     1.9148 C.ar         1    LIG   0.0000
  21 N21         -5.9795     4.3289     2.0965 N.am         1    LIG   0.0000
  22 C22         -7.1675     3.9766     1.5122 C.2          1    LIG   0.0000
  23 C23         -7.2543     2.7165     0.6666 C.3          1    LIG   0.0000
  24 O24         -8.1395     4.6628     1.6679 O.2          1    LIG   0.0000
  25 C25         -4.3490     3.3049     0.6350 C.ar         1    LIG   0.0000
  26 C26         -3.2224     2.5094     0.4549 C.ar         1    LIG   0.0000
  27 N27          3.1674     1.1807     2.0388 N.pl3        1    LIG   0.0000
  28 C28          4.1136     1.8968     1.4217 C.2          1    LIG   0.0000
  29 N29          5.2575     1.2761     1.5918 N.2          1    LIG   0.0000
  30 C30          5.0704     0.1273     2.3034 C.ar         1    LIG   0.0000
  31 C31          5.9617    -0.8494     2.7283 C.ar         1    LIG   0.0000
  32 C32          5.5198    -1.9487     3.4559 C.ar         1    LIG   0.0000
  33 C33          4.1645    -2.0527     3.7516 C.ar         1    LIG   0.0000
  34 C34          3.2959    -1.0549     3.3128 C.ar         1    LIG   0.0000
  35 C35          3.7307     0.0523     2.5850 C.ar         1    LIG   0.0000
  36 C36          6.5749     4.4707    -2.3832 C.ar         1    LIG   0.0000
  37 C37          7.3160     5.3993    -3.1067 C.ar         1    LIG   0.0000
  38 H            1.4518     2.1113     2.7539 H            1    LIG   0.0000
  39 H            9.2125     7.8545    -5.0090 H            1    LIG   0.0000
  40 H            9.1838     7.0976    -3.5624 H            1    LIG   0.0000
  41 H            8.9025     6.2531    -4.9314 H            1    LIG   0.0000
  42 H            4.8515     7.4842    -3.8836 H            1    LIG   0.0000
  43 H            3.5776     5.8827    -2.6350 H            1    LIG   0.0000
  44 H            4.8235     2.7313    -1.5168 H            1    LIG   0.0000
  45 H            3.4663     3.6025    -1.7734 H            1    LIG   0.0000
  46 H            5.3178     4.0639     0.3938 H            1    LIG   0.0000
  47 H            3.9606     4.9351     0.1372 H            1    LIG   0.0000
  48 H            1.4420     0.8679     0.1128 H            1    LIG   0.0000
  49 H            0.8679     0.1128     1.4420 H            1    LIG   0.0000
  50 H           -1.4769     0.1933     1.6868 H            1    LIG   0.0000
  51 H           -2.6395     1.7535     3.6420 H            1    LIG   0.0000
  52 H           -4.5832     3.1253     3.9384 H            1    LIG   0.0000
  53 H           -5.9223     5.1579     2.6529 H            1    LIG   0.0000
  54 H           -6.3604     2.2688     0.6427 H            1    LIG   0.0000
  55 H           -7.9283     2.0940     1.0643 H            1    LIG   0.0000
  56 H           -7.5313     2.9577    -0.2635 H            1    LIG   0.0000
  57 H           -4.8023     3.7164    -0.1557 H            1    LIG   0.0000
  58 H           -2.8609     2.3442    -0.4627 H            1    LIG   0.0000
  59 H            6.9331    -0.7608     2.5083 H            1    LIG   0.0000
  60 H            6.1635    -2.6507     3.7605 H            1    LIG   0.0000
  61 H            3.8180    -2.8330     4.2723 H            1    LIG   0.0000
  62 H            2.3228    -1.1362     3.5282 H            1    LIG   0.0000
  63 H            7.0261     3.6724    -1.9844 H            1    LIG   0.0000
  64 H            8.3002     5.2743    -3.2321 H            1    LIG   0.0000
@<TRIPOS>BOND
   1        1        2 1
   2        2        3 1
   3        3        4 ar
   4        4        5 ar
   5        5        6 ar
   6        6        7 1
   7        7        8 1
   8        8        9 1
   9        9       10 am
  10       10       11 2
  11       10       12 1
  12       12       13 1
  13       13       14 1
  14       14       15 2
  15       14       16 am
  16       16       17 1
  17       17       18 ar
  18       18       19 ar
  19       19       20 ar
  20       20       21 1
  21       21       22 am
  22       22       23 1
  23       22       24 2
  24       20       25 ar
  25       25       26 ar
  26       26       17 ar
  27       12       27 1
  28       27       28 1
  29       28        9 1
  30       28       29 2
  31       29       30 1
  32       30       31 ar
  33       31       32 ar
  34       32       33 ar
  35       33       34 ar
  36       34       35 ar
  37       35       30 ar
  38       35       27 1
  39        6       36 ar
  40       36       37 ar
  41       37        3 ar
  42       12       38 1
  43        1       39 1
  44        1       40 1
  45        1       41 1
  46        4       42 1
  47        5       43 1
  48        7       44 1
  49        7       45 1
  50        8       46 1
  51        8       47 1
  52       13       48 1
  53       13       49 1
  54       16       50 1
  55       18       51 1
  56       19       52 1
  57       21       53 1
  58       23       54 1
  59       23       55 1
  60       23       56 1
  61       25       57 1
  62       26       58 1
  63       31       59 1
  64       32       60 1
  65       33       61 1
  66       34       62 1
  67       36       63 1
  68       37       64 1

@<TRIPOS>MOLECULE

  64   68
SMALL
USER_CHARGES
@<TRIPOS>ATOM
   1 C1           8.7737     7.1328    -4.4737 C.3          1    LIG   0.0000
   2 O2           7.3853     7.4073    -4.3576 O.3          1    LIG   0.0000
   3 C3           6.6712     6.5037    -3.6535 C.ar         1    LIG   0.0000
   4 C4           5.3027     6.6859    -3.4847 C.ar         1    LIG   0.0000
   5 C5           4.5617     5.7574    -2.7609 C.ar         1    LIG   0.0000
   6 C6           5.2062     4.6526    -2.2144 C.ar         1    LIG   0.0000
   7 C7           4.4024     3.6335    -1.4230 C.3          1    LIG   0.0000
   8 C8           4.3817     4.0329     0.0434 C.3          1    LIG   0.0000
   9 N9           3.6030     3.0457     0.8101 N.am         1    LIG   0.0000
  10 C10          2.2383     3.1016     1.0561 C.2          1    LIG   0.0000
  11 O11          1.4734     3.9743     0.6855 O.2          1    LIG   0.0000
  12 C12          1.8804     1.8804     1.8804 C.3          1    LIG   0.0000
  13 C13          1.0000     1.0000     1.0000 C.3          1    LIG   0.0000
  14 C14         -0.3486     1.6719     0.7992 C.2          1    LIG   0.0000
  15 O15         -1.1181     1.7587     1.7158 O.2          1    LIG   0.0000
  16 N16         -0.6855     2.1782    -0.4284 N.am         1    LIG   0.0000
  17 C17         -1.9275     2.7970    -0.6134 C.ar         1    LIG   0.0000
  18 C18         -1.9775     4.1271    -1.0187 C.ar         1    LIG   0.0000
  19 C19         -3.2160     4.7336    -1.2011 C.ar         1    LIG   0.0000
  20 C20         -4.3838     4.0113    -0.9792 C.ar         1    LIG   0.0000
  21 N21         -5.6258     4.6310    -1.1665 N.am         1    LIG   0.0000
  22 C22         -6.6543     3.9409    -1.7519 C.2          1    LIG   0.0000
  23 C23         -8.0022     4.6134    -1.9551 C.3          1    LIG   0.0000
  24 O24         -6.4911     2.8054    -2.1042 O.2          1    LIG   0.0000
  25 C25         -4.3238     2.6823    -0.5748 C.ar         1    LIG   0.0000
  26 C26         -3.0902     2.0672    -0.3888 C.ar         1    LIG   0.0000
  27 N27          3.1674     1.1807     2.0388 N.pl3        1    LIG   0.0000
  28 C28          4.1136     1.8968     1.4217 C.2          1    LIG   0.0000
  29 N29          5.2575     1.2761     1.5918 N.2          1    LIG   0.0000
  30 C30          5.0704     0.1273     2.3034 C.ar         1    LIG   0.0000
  31 C31          5.9617    -0.8494     2.7283 C.ar         1    LIG   0.0000
  32 C32          5.5198    -1.9487     3.4559 C.ar         1    LIG   0.0000
  33 C33          4.1645    -2.0527     3.7516 C.ar         1    LIG   0.0000
  34 C34          3.2959    -1.0549     3.3128 C.ar         1    LIG   0.0000
  35 C35          3.7307     0.0523     2.5850 C.ar         1    LIG   0.0000
  36 C36          6.5749     4.4707    -2.3832 C.ar         1    LIG   0.0000
  37 C37          7.3160     5.3993    -3.1067 C.ar         1    LIG   0.0000
  38 H            1.4518     2.1113     2.7539 H            1    LIG   0.0000
  39 H            9.2125     7.8545    -5.0090 H            1    LIG   0.0000
  40 H            9.1838     7.0976    -3.5624 H            1    LIG   0.0000
  41 H            8.9025     6.2531    -4.9314 H            1    LIG   0.0000
  42 H            4.8515     7.4842    -3.8836 H            1    LIG   0.0000
  43 H            3.5776     5.8827    -2.6350 H            1    LIG   0.0000
  44 H            4.8235     2.7313    -1.5168 H            1    LIG   0.0000
  45 H            3.4663     3.6025    -1.7734 H            1    LIG   0.0000
  46 H            5.3178     4.0639     0.3938 H            1    LIG   0.0000
  47 H            3.9606     4.9351     0.1372 H            1    LIG   0.0000
  48 H            1.4420     0.8679     0.1128 H            1    LIG   0.0000
  49 H            0.8679     0.1128     1.4420 H            1    LIG   0.0000
  50 H           -0.0443     2.1059    -1.1923 H            1    LIG   0.0000
  51 H           -1.1340     4.6404    -1.1768 H            1    LIG   0.0000
  52 H           -3.2667     5.6890    -1.4919 H            1    LIG   0.0000
  53 H           -5.7618     5.5772    -0.8729 H            1    LIG   0.0000
  54 H           -7.9632     5.5501    -1.6073 H            1    LIG   0.0000
  55 H           -8.2234     4.6288    -2.9302 H            1    LIG   0.0000
  56 H           -8.7069     4.1036    -1.4615 H            1    LIG   0.0000
  57 H           -5.1673     2.1688    -0.4176 H            1    LIG   0.0000
  58 H           -3.0397     1.1120    -0.0973 H            1    LIG   0.0000
  59 H            6.9331    -0.7608     2.5083 H            1    LIG   0.0000
  60 H            6.1635    -2.6507     3.7605 H            1    LIG   0.0000
  61 H            3.8180    -2.8330     4.2723 H            1    LIG   0.0000
  62 H            2.3228    -1.1362     3.5282 H            1    LIG   0.0000
  63 H            7.0261     3.6724    -1.9844 H            1    LIG   0.0000
  64 H            8.3002     5.2743    -3.2321 H            1    LIG   0.0000
@<TRIPOS>BOND
   1        1        2 1
   2        2        3 1
   3        3        4 ar
   4        4        5 ar
   5        5        6 ar
   6        6        7 1
   7        7        8 1
   8        8        9 1
   9        9       10 am
  10       10       11 2
  11       10       12 1
  12       12       13 1
  13       13       14 1
  14       14       15 2
  15       14       16 am
  16       16       17 1
  17       17       18 ar
  18       18       19 ar
  19       19       20 ar
  20       20       21 1
  21       21       22 am
  22       22       23 1
  23       22       24 2
  24       20       25 ar
  25       25       26 ar
  26       26       17 ar
  27       12       27 1
  28       27       28 1
  29       28        9 1
  30       28       29 2
  31       29       30 1
  32       30       31 ar
  33       31       32 ar
  34       32       33 ar
  35       33       34 ar
  36       34       35 ar
  37       35       30 ar
  38       35       27 1
  39        6       36 ar
  40       36       37 ar
  41       37        3 ar
  42       12       38 1
  43        1       39 1
  44        1       40 1
  45        1       41 1
  46        4       42 1
  47        5       43 1
  48        7       44 1
  49        7       45 1
  50        8       46 1
  51        8       47 1
  52       13       48 1
  53       13       49 1
  54       16       50 1
  55       18       51 1
  56       19       52 1
  57       21       53 1
  58       23       54 1
  59       23       55 1
  60       23       56 1
  61       25       57 1
  62       26       58 1
  63       31       59 1
  64       32       60 1
  65       33       61 1
  66       34       62 1
  67       36       63 1
  68       37       64 1

@<TRIPOS>MOLECULE

  64   68
SMALL
USER_CHARGES
@<TRIPOS>ATOM
   1 C1           8.7737     7.1328    -4.4737 C.3          1    LIG   0.0000
   2 O2           7.3853     7.4073    -4.3576 O.3          1    LIG   0.0000
   3 C3           6.6712     6.5037    -3.6535 C.ar         1    LIG   0.0000
   4 C4           5.3027     6.6859    -3.4847 C.ar         1    LIG   0.0000
   5 C5           4.5617     5.7574    -2.7609 C.ar         1    LIG   0.0000
   6 C6           5.2062     4.6526    -2.2144 C.ar         1    LIG   0.0000
   7 C7           4.4024     3.6335    -1.4230 C.3          1    LIG   0.0000
   8 C8           4.3817     4.0329     0.0434 C.3          1    LIG   0.0000
   9 N9           3.6030     3.0457     0.8101 N.am         1    LIG   0.0000
  10 C10          2.2383     3.1016     1.0561 C.2          1    LIG   0.0000
  11 O11          1.4734     3.9743     0.6855 O.2          1    LIG   0.0000
  12 C12          1.8804     1.8804     1.8804 C.3          1    LIG   0.0000
  13 C13          1.0000     1.0000     1.0000 C.3          1    LIG   0.0000
  14 C14         -0.3486     1.6719     0.7992 C.2          1    LIG   0.0000
  15 O15         -1.3526     1.1215     1.1585 O.2          1    LIG   0.0000
  16 N16         -0.4179     2.9057     0.2078 N.am         1    LIG   0.0000
  17 C17         -1.4480     3.7894     0.5508 C.ar         1    LIG   0.0000
  18 C18         -2.3278     4.2317    -0.4321 C.ar         1    LIG   0.0000
  19 C19         -3.3491     5.1088    -0.0822 C.ar         1    LIG   0.0000
  20 C20         -3.4814     5.5322     1.2362 C.ar         1    LIG   0.0000
  21 N21         -4.5135     6.4148     1.5784 N.am         1    LIG   0.0000
  22 C22         -4.2174     7.6398     2.1157 C.2          1    LIG   0.0000
  23 C23         -2.7687     8.0409     2.3404 C.3          1    LIG   0.0000
  24 O24         -5.1018     8.3960     2.4089 O.2          1    LIG   0.0000
  25 C25         -2.5974     5.0843     2.2117 C.ar         1    LIG   0.0000
  26 C26         -1.5724     4.2078     1.8715 C.ar         1    LIG   0.0000
  27 N27          3.1674     1.1807     2.0388 N.pl3        1    LIG   0.0000
  28 C28          4.1136     1.8968     1.4217 C.2          1    LIG   0.0000
  29 N29          5.2575     1.2761     1.5918 N.2          1    LIG   0.0000
  30 C30          5.0704     0.1273     2.3034 C.ar         1    LIG   0.0000
  31 C31          5.9617    -0.8494     2.7283 C.ar         1    LIG   0.0000
  32 C32          5.5198    -1.9487     3.4559 C.ar         1    LIG   0.0000
  33 C33          4.1645    -2.0527     3.7516 C.ar         1    LIG   0.0000
  34 C34          3.2959    -1.0549     3.3128 C.ar         1    LIG   0.0000
  35 C35          3.7307     0.0523     2.5850 C.ar         1    LIG   0.0000
  36 C36          6.5749     4.4707    -2.3832 C.ar         1    LIG   0.0000
  37 C37          7.3160     5.3993    -3.1067 C.ar         1    LIG   0.0000
  38 H            1.4518     2.1113     2.7539 H            1    LIG   0.0000
  39 H            9.2125     7.8545    -5.0090 H            1    LIG   0.0000
  40 H            9.1838     7.0976    -3.5624 H            1    LIG   0.0000
  41 H            8.9025     6.2531    -4.9314 H            1    LIG   0.0000
  42 H            4.8515     7.4842    -3.8836 H            1    LIG   0.0000
  43 H            3.5776     5.8827    -2.6350 H            1    LIG   0.0000
  44 H            4.8235     2.7313    -1.5168 H            1    LIG   0.0000
  45 H            3.4663     3.6025    -1.7734 H            1    LIG   0.0000
  46 H            5.3178     4.0639     0.3938 H            1    LIG   0.0000
  47 H            3.9606     4.9351     0.1372 H            1    LIG   0.0000
  48 H            1.4420     0.8679     0.1128 H            1    LIG   0.0000
  49 H            0.8679     0.1128     1.4420 H            1    LIG   0.0000
  50 H            0.2674     3.1751    -0.4688 H            1    LIG   0.0000
  51 H           -2.2272     3.9230    -1.3779 H            1    LIG   0.0000
  52 H           -3.9884     5.4350    -0.7785 H            1    LIG   0.0000
  53 H           -5.4667     6.1509     1.4305 H            1    LIG   0.0000
  54 H           -2.1674     7.2992     2.0432 H            1    LIG   0.0000
  55 H           -2.5656     8.8661     1.8133 H            1    LIG   0.0000
  56 H           -2.6198     8.2215     3.3127 H            1    LIG   0.0000
  57 H           -2.6987     5.3923     3.1577 H            1    LIG   0.0000
  58 H           -0.9328     3.8824     2.5679 H            1    LIG   0.0000
  59 H            6.9331    -0.7608     2.5083 H            1    LIG   0.0000
  60 H            6.1635    -2.6507     3.7605 H            1    LIG   0.0000
  61 H            3.8180    -2.8330     4.2723 H            1    LIG   0.0000
  62 H            2.3228    -1.1362     3.5282 H            1    LIG   0.0000
  63 H            7.0261     3.6724    -1.9844 H            1    LIG   0.0000
  64 H            8.3002     5.2743    -3.2321 H            1    LIG   0.0000
@<TRIPOS>BOND
   1        1        2 1
   2        2        3 1
   3        3        4 ar
   4        4        5 ar
   5        5        6 ar
   6        6        7 1
   7        7        8 1
   8        8        9 1
   9        9       10 am
  10       10       11 2
  11       10       12 1
  12       12       13 1
  13       13       14 1
  14       14       15 2
  15       14       16 am
  16       16       17 1
  17       17       18 ar
  18       18       19 ar
  19       19       20 ar
  20       20       21 1
  21       21       22 am
  22       22       23 1
  23       22       24 2
  24       20       25 ar
  25       25       26 ar
  26       26       17 ar
  27       12       27 1
  28       27       28 1
  29       28        9 1
  30       28       29 2
  31       29       30 1
  32       30       31 ar
  33       31       32 ar
  34       32       33 ar
  35       33       34 ar
  36       34       35 ar
  37       35       30 ar
  38       35       27 1
  39        6       36 ar
  40       36       37 ar
  41       37        3 ar
  42       12       38 1
  43        1       39 1
  44        1       40 1
  45        1       41 1
  46        4       42 1
  47        5       43 1
  48        7       44 1
  49        7       45 1
  50        8       46 1
  51        8       47 1
  52       13       48 1
  53       13       49 1
  54       16       50 1
  55       18       51 1
  56       19       52 1
  57       21       53 1
  58       23       54 1
  59       23       55 1
  60       23       56 1
  61       25       57 1
  62       26       58 1
  63       31       59 1
  64       32       60 1
  65       33       61 1
  66       34       62 1
  67       36       63 1
  68       37       64 1

@<TRIPOS>MOLECULE

  64   68
SMALL
USER_CHARGES
@<TRIPOS>ATOM
   1 C1           8.7850     7.4007    -4.1184 C.3          1    LIG   0.0000
   2 O2           7.3853     7.4073    -4.3576 O.3          1    LIG   0.0000
   3 C3           6.6712     6.5037    -3.6535 C.ar         1    LIG   0.0000
   4 C4           5.3027     6.6859    -3.4847 C.ar         1    LIG   0.0000
   5 C5           4.5617     5.7574    -2.7609 C.ar         1    LIG   0.0000
   6 C6           5.2062     4.6526    -2.2144 C.ar         1    LIG   0.0000
   7 C7           4.4024     3.6335    -1.4230 C.3          1    LIG   0.0000
   8 C8           4.3817     4.0329     0.0434 C.3          1    LIG   0.0000
   9 N9           3.6030     3.0457     0.8101 N.am         1    LIG   0.0000
  10 C10          2.2383     3.1016     1.0561 C.2          1    LIG   0.0000
  11 O11          1.4734     3.9743     0.6855 O.2          1    LIG   0.0000
  12 C12          1.8804     1.8804     1.8804 C.3          1    LIG   0.0000
  13 C13          1.0000     1.0000     1.0000 C.3          1    LIG   0.0000
  14 C14         -0.3486     1.6719     0.7992 C.2          1    LIG   0.0000
  15 O15         -0.5705     2.7359     1.3077 O.2          1    LIG   0.0000
  16 N16         -1.3107     1.0627     0.0375 N.am         1    LIG   0.0000
  17 C17         -2.6653     1.2765     0.3186 C.ar         1    LIG   0.0000
  18 C18         -3.6343     0.6530    -0.4612 C.ar         1    LIG   0.0000
  19 C19         -4.9779     0.8702    -0.1740 C.ar         1    LIG   0.0000
  20 C20         -5.3382     1.7015     0.8814 C.ar         1    LIG   0.0000
  21 N21         -6.6938     1.9131     1.1627 N.am         1    LIG   0.0000
  22 C22         -7.2013     1.5673     2.3874 C.2          1    LIG   0.0000
  23 C23         -6.2932     0.9539     3.4407 C.3          1    LIG   0.0000
  24 O24         -8.3628     1.7486     2.6284 O.2          1    LIG   0.0000
  25 C25         -4.3625     2.3200     1.6554 C.ar         1    LIG   0.0000
  26 C26         -3.0164     2.1096     1.3757 C.ar         1    LIG   0.0000
  27 N27          3.1674     1.1807     2.0388 N.pl3        1    LIG   0.0000
  28 C28          4.1136     1.8968     1.4217 C.2          1    LIG   0.0000
  29 N29          5.2575     1.2761     1.5918 N.2          1    LIG   0.0000
  30 C30          5.0704     0.1273     2.3034 C.ar         1    LIG   0.0000
  31 C31          5.9617    -0.8494     2.7283 C.ar         1    LIG   0.0000
  32 C32          5.5198    -1.9487     3.4559 C.ar         1    LIG   0.0000
  33 C33          4.1645    -2.0527     3.7516 C.ar         1    LIG   0.0000
  34 C34          3.2959    -1.0549     3.3128 C.ar         1    LIG   0.0000
  35 C35          3.7307     0.0523     2.5850 C.ar         1    LIG   0.0000
  36 C36          6.5749     4.4707    -2.3832 C.ar         1    LIG   0.0000
  37 C37          7.3160     5.3993    -3.1067 C.ar         1    LIG   0.0000
  38 H            1.4518     2.1113     2.7539 H            1    LIG   0.0000
  39 H            9.2229     8.1005    -4.6829 H            1    LIG   0.0000
  40 H            8.9590     7.5943    -3.1529 H            1    LIG   0.0000
  41 H            9.1587     6.5029    -4.3510 H            1    LIG   0.0000
  42 H            4.8515     7.4842    -3.8836 H            1    LIG   0.0000
  43 H            3.5776     5.8827    -2.6350 H            1    LIG   0.0000
  44 H            4.8235     2.7313    -1.5168 H            1    LIG   0.0000
  45 H            3.4663     3.6025    -1.7734 H            1    LIG   0.0000
  46 H            5.3178     4.0639     0.3938 H            1    LIG   0.0000
  47 H            3.9606     4.9351     0.1372 H            1    LIG   0.0000
  48 H            1.4420     0.8679     0.1128 H            1    LIG   0.0000
  49 H            0.8679     0.1128     1.4420 H            1    LIG   0.0000
  50 H           -1.0454     0.4652    -0.7192 H            1    LIG   0.0000
  51 H           -3.3682     0.0563    -1.2183 H            1    LIG   0.0000
  52 H           -5.6849     0.4287    -0.7265 H            1    LIG   0.0000
  53 H           -7.2912     2.3167     0.4698 H            1    LIG   0.0000
  54 H           -5.3656     0.8745     3.0758 H            1    LIG   0.0000
  55 H           -6.2832     1.5373     4.2528 H            1    LIG   0.0000
  56 H           -6.6335     0.0462     3.6865 H            1    LIG   0.0000
  57 H           -4.6287     2.9159     2.4131 H            1    LIG   0.0000
  58 H           -2.3096     2.5519     1.9278 H            1    LIG   0.0000
  59 H            6.9331    -0.7608     2.5083 H            1    LIG   0.0000
  60 H            6.1635    -2.6507     3.7605 H            1    LIG   0.0000
  61 H            3.8180    -2.8330     4.2723 H            1    LIG   0.0000
  62 H            2.3228    -1.1362     3.5282 H            1    LIG   0.0000
  63 H            7.0261     3.6724    -1.9844 H            1    LIG   0.0000
  64 H            8.3002     5.2743    -3.2321 H            1    LIG   0.0000
@<TRIPOS>BOND
   1        1        2 1
   2        2        3 1
   3        3        4 ar
   4        4        5 ar
   5        5        6 ar
   6        6        7 1
   7        7        8 1
   8        8        9 1
   9        9       10 am
  10       10       11 2
  11       10       12 1
  12       12       13 1
  13       13       14 1
  14       14       15 2
  15       14       16 am
  16       16       17 1
  17       17       18 ar
  18       18       19 ar
  19       19       20 ar
  20       20       21 1
  21       21       22 am
  22       22       23 1
  23       22       24 2
  24       20       25 ar
  25       25       26 ar
  26       26       17 ar
  27       12       27 1
  28       27       28 1
  29       28        9 1
  30       28       29 2
  31       29       30 1
  32       30       31 ar
  33       31       32 ar
  34       32       33 ar
  35       33       34 ar
  36       34       35 ar
  37       35       30 ar
  38       35       27 1
  39        6       36 ar
  40       36       37 ar
  41       37        3 ar
  42       12       38 1
  43        1       39 1
  44        1       40 1
  45        1       41 1
  46        4       42 1
  47        5       43 1
  48        7       44 1
  49        7       45 1
  50        8       46 1
  51        8       47 1
  52       13       48 1
  53       13       49 1
  54       16       50 1
  55       18       51 1
  56       19       52 1
  57       21       53 1
  58       23       54 1
  59       23       55 1
  60       23       56 1
  61       25       57 1
  62       26       58 1
  63       31       59 1
  64       32       60 1
  65       33       61 1
  66       34       62 1
  67       36       63 1
  68       37       64 1

@<TRIPOS>MOLECULE

  64   68
SMALL
USER_CHARGES
@<TRIPOS>ATOM
   1 C1           6.6437     8.5001    -4.8793 C.3          1    LIG   0.0000
   2 O2           7.3853     7.4073    -4.3576 O.3          1    LIG   0.0000
   3 C3           6.6712     6.5037    -3.6535 C.ar         1    LIG   0.0000
   4 C4           5.3027     6.6859    -3.4847 C.ar         1    LIG   0.0000
   5 C5           4.5617     5.7574    -2.7609 C.ar         1    LIG   0.0000
   6 C6           5.2062     4.6526    -2.2144 C.ar         1    LIG   0.0000
   7 C7           4.4024     3.6335    -1.4230 C.3          1    LIG   0.0000
   8 C8           4.3817     4.0329     0.0434 C.3          1    LIG   0.0000
   9 N9           3.6030     3.0457     0.8101 N.am         1    LIG   0.0000
  10 C10          2.2383     3.1016     1.0561 C.2          1    LIG   0.0000
  11 O11          1.4734     3.9743     0.6855 O.2          1    LIG   0.0000
  12 C12          1.8804     1.8804     1.8804 C.3          1    LIG   0.0000
  13 C13          1.0000     1.0000     1.0000 C.3          1    LIG   0.0000
  14 C14         -0.3486     1.6719     0.7992 C.2          1    LIG   0.0000
  15 O15         -0.5705     2.7359     1.3077 O.2          1    LIG   0.0000
  16 N16         -1.3107     1.0627     0.0375 N.am         1    LIG   0.0000
  17 C17         -2.2390     1.8371    -0.6682 C.ar         1    LIG   0.0000
  18 C18         -3.5966     1.6947    -0.3990 C.ar         1    LIG   0.0000
  19 C19         -4.5120     2.4691    -1.1042 C.ar         1    LIG   0.0000
  20 C20         -4.0662     3.3718    -2.0639 C.ar         1    LIG   0.0000
  21 N21         -4.9959     4.1474    -2.7680 N.am         1    LIG   0.0000
  22 C22         -5.0745     4.0516    -4.1323 C.2          1    LIG   0.0000
  23 C23         -6.3303     4.5107    -4.8553 C.3          1    LIG   0.0000
  24 O24         -4.1520     3.6053    -4.7566 O.2          1    LIG   0.0000
  25 C25         -2.7072     3.5075    -2.3257 C.ar         1    LIG   0.0000
  26 C26         -1.7842     2.7370    -1.6263 C.ar         1    LIG   0.0000
  27 N27          3.1674     1.1807     2.0388 N.pl3        1    LIG   0.0000
  28 C28          4.1136     1.8968     1.4217 C.2          1    LIG   0.0000
  29 N29          5.2575     1.2761     1.5918 N.2          1    LIG   0.0000
  30 C30          5.0704     0.1273     2.3034 C.ar         1    LIG   0.0000
  31 C31          5.9617    -0.8494     2.7283 C.ar         1    LIG   0.0000
  32 C32          5.5198    -1.9487     3.4559 C.ar         1    LIG   0.0000
  33 C33          4.1645    -2.0527     3.7516 C.ar         1    LIG   0.0000
  34 C34          3.2959    -1.0549     3.3128 C.ar         1    LIG   0.0000
  35 C35          3.7307     0.0523     2.5850 C.ar         1    LIG   0.0000
  36 C36          6.5749     4.4707    -2.3832 C.ar         1    LIG   0.0000
  37 C37          7.3160     5.3993    -3.1067 C.ar         1    LIG   0.0000
  38 H            1.4518     2.1113     2.7539 H            1    LIG   0.0000
  39 H            7.2571     9.1098    -5.3814 H            1    LIG   0.0000
  40 H            5.9352     8.1578    -5.4965 H            1    LIG   0.0000
  41 H            6.2166     9.0023    -4.1274 H            1    LIG   0.0000
  42 H            4.8515     7.4842    -3.8836 H            1    LIG   0.0000
  43 H            3.5776     5.8827    -2.6350 H            1    LIG   0.0000
  44 H            4.8235     2.7313    -1.5168 H            1    LIG   0.0000
  45 H            3.4663     3.6025    -1.7734 H            1    LIG   0.0000
  46 H            5.3178     4.0639     0.3938 H            1    LIG   0.0000
  47 H            3.9606     4.9351     0.1372 H            1    LIG   0.0000
  48 H            1.4420     0.8679     0.1128 H            1    LIG   0.0000
  49 H            0.8679     0.1128     1.4420 H            1    LIG   0.0000
  50 H           -1.3498     0.0648    -0.0143 H            1    LIG   0.0000
  51 H           -3.9103     1.0440     0.2925 H            1    LIG   0.0000
  52 H           -5.4908     2.3767    -0.9212 H            1    LIG   0.0000
  53 H           -5.6023     4.7711    -2.2747 H            1    LIG   0.0000
  54 H           -6.9929     4.8519    -4.1886 H            1    LIG   0.0000
  55 H           -6.0971     5.2411    -5.4973 H            1    LIG   0.0000
  56 H           -6.7270     3.7411    -5.3557 H            1    LIG   0.0000
  57 H           -2.3936     4.1589    -3.0166 H            1    LIG   0.0000
  58 H           -0.8056     2.8290    -1.8101 H            1    LIG   0.0000
  59 H            6.9331    -0.7608     2.5083 H            1    LIG   0.0000
  60 H            6.1635    -2.6507     3.7605 H            1    LIG   0.0000
  61 H            3.8180    -2.8330     4.2723 H            1    LIG   0.0000
  62 H            2.3228    -1.1362     3.5282 H            1    LIG   0.0000
  63 H            7.0261     3.6724    -1.9844 H            1    LIG   0.0000
  64 H            8.3002     5.2743    -3.2321 H            1    LIG   0.0000
@<TRIPOS>BOND
   1        1        2 1
   2        2        3 1
   3        3        4 ar
   4        4        5 ar
   5        5        6 ar
   6        6        7 1
   7        7        8 1
   8        8        9 1
   9        9       10 am
  10       10       11 2
  11       10       12 1
  12       12       13 1
  13       13       14 1
  14       14       15 2
  15       14       16 am
  16       16       17 1
  17       17       18 ar
  18       18       19 ar
  19       19       20 ar
  20       20       21 1
  21       21       22 am
  22       22       23 1
  23       22       24 2
  24       20       25 ar
  25       25       26 ar
  26       26       17 ar
  27       12       27 1
  28       27       28 1
  29       28        9 1
  30       28       29 2
  31       29       30 1
  32       30       31 ar
  33       31       32 ar
  34       32       33 ar
  35       33       34 ar
  36       34       35 ar
  37       35       30 ar
  38       35       27 1
  39        6       36 ar
  40       36       37 ar
  41       37        3 ar
  42       12       38 1
  43        1       39 1
  44        1       40 1
  45        1       41 1
  46        4       42 1
  47        5       43 1
  48        7       44 1
  49        7       45 1
  50        8       46 1
  51        8       47 1
  52       13       48 1
  53       13       49 1
  54       16       50 1
  55       18       51 1
  56       19       52 1
  57       21       53 1
  58       23       54 1
  59       23       55 1
  60       23       56 1
  61       25       57 1
  62       26       58 1
  63       31       59 1
  64       32       60 1
  65       33       61 1
  66       34       62 1
  67       36       63 1
  68       37       64 1

@<TRIPOS>MOLECULE

  64   68
SMALL
USER_CHARGES
@<TRIPOS>ATOM
   1 C1           6.6437     8.5001    -4.8793 C.3          1    LIG   0.0000
   2 O2           7.3853     7.4073    -4.3576 O.3          1    LIG   0.0000
   3 C3           6.6712     6.5037    -3.6535 C.ar         1    LIG   0.0000
   4 C4           5.3027     6.6859    -3.4847 C.ar         1    LIG   0.0000
   5 C5           4.5617     5.7574    -2.7609 C.ar         1    LIG   0.0000
   6 C6           5.2062     4.6526    -2.2144 C.ar         1    LIG   0.0000
   7 C7           4.4024     3.6335    -1.4230 C.3          1    LIG   0.0000
   8 C8           4.3817     4.0329     0.0434 C.3          1    LIG   0.0000
   9 N9           3.6030     3.0457     0.8101 N.am         1    LIG   0.0000
  10 C10          2.2383     3.1016     1.0561 C.2          1    LIG   0.0000
  11 O11          1.4734     3.9743     0.6855 O.2          1    LIG   0.0000
  12 C12          1.8804     1.8804     1.8804 C.3          1    LIG   0.0000
  13 C13          1.0000     1.0000     1.0000 C.3          1    LIG   0.0000
  14 C14         -0.3486     1.6719     0.7992 C.2          1    LIG   0.0000
  15 O15         -0.4314     2.6618     0.1260 O.2          1    LIG   0.0000
  16 N16         -1.4695     1.1472     1.3866 N.am         1    LIG   0.0000
  17 C17         -2.6046     1.9464     1.5667 C.ar         1    LIG   0.0000
  18 C18         -3.8670     1.4043     1.3465 C.ar         1    LIG   0.0000
  19 C19         -4.9895     2.2053     1.5290 C.ar         1    LIG   0.0000
  20 C20         -4.8417     3.5299     1.9271 C.ar         1    LIG   0.0000
  21 N21         -5.9782     4.3279     2.1088 N.am         1    LIG   0.0000
  22 C22         -6.0393     5.2037     3.1605 C.2          1    LIG   0.0000
  23 C23         -4.8736     5.3094     4.1302 C.3          1    LIG   0.0000
  24 O24         -7.0131     5.8874     3.3162 O.2          1    LIG   0.0000
  25 C25         -3.5759     4.0626     2.1452 C.ar         1    LIG   0.0000
  26 C26         -2.4474     3.2699     1.9646 C.ar         1    LIG   0.0000
  27 N27          3.1674     1.1807     2.0388 N.pl3        1    LIG   0.0000
  28 C28          4.1136     1.8968     1.4217 C.2          1    LIG   0.0000
  29 N29          5.2575     1.2761     1.5918 N.2          1    LIG   0.0000
  30 C30          5.0704     0.1273     2.3034 C.ar         1    LIG   0.0000
  31 C31          5.9617    -0.8494     2.7283 C.ar         1    LIG   0.0000
  32 C32          5.5198    -1.9487     3.4559 C.ar         1    LIG   0.0000
  33 C33          4.1645    -2.0527     3.7516 C.ar         1    LIG   0.0000
  34 C34          3.2959    -1.0549     3.3128 C.ar         1    LIG   0.0000
  35 C35          3.7307     0.0523     2.5850 C.ar         1    LIG   0.0000
  36 C36          6.5749     4.4707    -2.3832 C.ar         1    LIG   0.0000
  37 C37          7.3160     5.3993    -3.1067 C.ar         1    LIG   0.0000
  38 H            1.4518     2.1113     2.7539 H            1    LIG   0.0000
  39 H            7.2571     9.1098    -5.3814 H            1    LIG   0.0000
  40 H            5.9352     8.1578    -5.4965 H            1    LIG   0.0000
  41 H            6.2166     9.0023    -4.1274 H            1    LIG   0.0000
  42 H            4.8515     7.4842    -3.8836 H            1    LIG   0.0000
  43 H            3.5776     5.8827    -2.6350 H            1    LIG   0.0000
  44 H            4.8235     2.7313    -1.5168 H            1    LIG   0.0000
  45 H            3.4663     3.6025    -1.7734 H            1    LIG   0.0000
  46 H            5.3178     4.0639     0.3938 H            1    LIG   0.0000
  47 H            3.9606     4.9351     0.1372 H            1    LIG   0.0000
  48 H            1.4420     0.8679     0.1128 H            1    LIG   0.0000
  49 H            0.8679     0.1128     1.4420 H            1    LIG   0.0000
  50 H           -1.4769     0.1933     1.6868 H            1    LIG   0.0000
  51 H           -3.9660     0.4512     1.0608 H            1    LIG   0.0000
  52 H           -5.9028     1.8289     1.3739 H            1    LIG   0.0000
  53 H           -6.7452     4.2583     1.4708 H            1    LIG   0.0000
  54 H           -4.1519     4.6744     3.8543 H            1    LIG   0.0000
  55 H           -4.5167     6.2435     4.1219 H            1    LIG   0.0000
  56 H           -5.1851     5.0797     5.0522 H            1    LIG   0.0000
  57 H           -3.4770     5.0155     2.4319 H            1    LIG   0.0000
  58 H           -1.5341     3.6469     2.1190 H            1    LIG   0.0000
  59 H            6.9331    -0.7608     2.5083 H            1    LIG   0.0000
  60 H            6.1635    -2.6507     3.7605 H            1    LIG   0.0000
  61 H            3.8180    -2.8330     4.2723 H            1    LIG   0.0000
  62 H            2.3228    -1.1362     3.5282 H            1    LIG   0.0000
  63 H            7.0261     3.6724    -1.9844 H            1    LIG   0.0000
  64 H            8.3002     5.2743    -3.2321 H            1    LIG   0.0000
@<TRIPOS>BOND
   1        1        2 1
   2        2        3 1
   3        3        4 ar
   4        4        5 ar
   5        5        6 ar
   6        6        7 1
   7        7        8 1
   8        8        9 1
   9        9       10 am
  10       10       11 2
  11       10       12 1
  12       12       13 1
  13       13       14 1
  14       14       15 2
  15       14       16 am
  16       16       17 1
  17       17       18 ar
  18       18       19 ar
  19       19       20 ar
  20       20       21 1
  21       21       22 am
  22       22       23 1
  23       22       24 2
  24       20       25 ar
  25       25       26 ar
  26       26       17 ar
  27       12       27 1
  28       27       28 1
  29       28        9 1
  30       28       29 2
  31       29       30 1
  32       30       31 ar
  33       31       32 ar
  34       32       33 ar
  35       33       34 ar
  36       34       35 ar
  37       35       30 ar
  38       35       27 1
  39        6       36 ar
  40       36       37 ar
  41       37        3 ar
  42       12       38 1
  43        1       39 1
  44        1       40 1
  45        1       41 1
  46        4       42 1
  47        5       43 1
  48        7       44 1
  49        7       45 1
  50        8       46 1
  51        8       47 1
  52       13       48 1
  53       13       49 1
  54       16       50 1
  55       18       51 1
  56       19       52 1
  57       21       53 1
  58       23       54 1
  59       23       55 1
  60       23       56 1
  61       25       57 1
  62       26       58 1
  63       31       59 1
  64       32       60 1
  65       33       61 1
  66       34       62 1
  67       36       63 1
  68       37       64 1

@<TRIPOS>MOLECULE

  64   68
SMALL
USER_CHARGES
@<TRIPOS>ATOM
   1 C1           6.6437     8.5001    -4.8793 C.3          1    LIG   0.0000
   2 O2           7.3853     7.4073    -4.3576 O.3          1    LIG   0.0000
   3 C3           6.6712     6.5037    -3.6535 C.ar         1    LIG   0.0000
   4 C4           5.3027     6.6859    -3.4847 C.ar         1    LIG   0.0000
   5 C5           4.5617     5.7574    -2.7609 C.ar         1    LIG   0.0000
   6 C6           5.2062     4.6526    -2.2144 C.ar         1    LIG   0.0000
   7 C7           4.4024     3.6335    -1.4230 C.3          1    LIG   0.0000
   8 C8           4.3817     4.0329     0.0434 C.3          1    LIG   0.0000
   9 N9           3.6030     3.0457     0.8101 N.am         1    LIG   0.0000
  10 C10          2.2383     3.1016     1.0561 C.2          1    LIG   0.0000
  11 O11          1.4734     3.9743     0.6855 O.2          1    LIG   0.0000
  12 C12          1.8804     1.8804     1.8804 C.3          1    LIG   0.0000
  13 C13          1.0000     1.0000     1.0000 C.3          1    LIG   0.0000
  14 C14         -0.3486     1.6719     0.7992 C.2          1    LIG   0.0000
  15 O15         -0.7197     1.9538    -0.3066 O.2          1    LIG   0.0000
  16 N16         -1.1404     1.9555     1.8806 N.am         1    LIG   0.0000
  17 C17         -2.1517     2.9175     1.7744 C.ar         1    LIG   0.0000
  18 C18         -3.4744     2.5500     2.0009 C.ar         1    LIG   0.0000
  19 C19         -4.4728     3.5127     1.8944 C.ar         1    LIG   0.0000
  20 C20         -4.1432     4.8234     1.5657 C.ar         1    LIG   0.0000
  21 N21         -5.1557     5.7854     1.4617 N.am         1    LIG   0.0000
  22 C22         -5.1115     6.7212     0.4621 C.2          1    LIG   0.0000
  23 C23         -3.9634     6.7155    -0.5341 C.3          1    LIG   0.0000
  24 O24         -5.9791     7.5455     0.3730 O.2          1    LIG   0.0000
  25 C25         -2.8183     5.1814     1.3417 C.ar         1    LIG   0.0000
  26 C26         -1.8129     4.2258     1.4450 C.ar         1    LIG   0.0000
  27 N27          3.1674     1.1807     2.0388 N.pl3        1    LIG   0.0000
  28 C28          4.1136     1.8968     1.4217 C.2          1    LIG   0.0000
  29 N29          5.2575     1.2761     1.5918 N.2          1    LIG   0.0000
  30 C30          5.0704     0.1273     2.3034 C.ar         1    LIG   0.0000
  31 C31          5.9617    -0.8494     2.7283 C.ar         1    LIG   0.0000
  32 C32          5.5198    -1.9487     3.4559 C.ar         1    LIG   0.0000
  33 C33          4.1645    -2.0527     3.7516 C.ar         1    LIG   0.0000
  34 C34          3.2959    -1.0549     3.3128 C.ar         1    LIG   0.0000
  35 C35          3.7307     0.0523     2.5850 C.ar         1    LIG   0.0000
  36 C36          6.5749     4.4707    -2.3832 C.ar         1    LIG   0.0000
  37 C37          7.3160     5.3993    -3.1067 C.ar         1    LIG   0.0000
  38 H            1.4518     2.1113     2.7539 H            1    LIG   0.0000
  39 H            7.2571     9.1098    -5.3814 H            1    LIG   0.0000
  40 H            5.9352     8.1578    -5.4965 H            1    LIG   0.0000
  41 H            6.2166     9.0023    -4.1274 H            1    LIG   0.0000
  42 H            4.8515     7.4842    -3.8836 H            1    LIG   0.0000
  43 H            3.5776     5.8827    -2.6350 H            1    LIG   0.0000
  44 H            4.8235     2.7313    -1.5168 H            1    LIG   0.0000
  45 H            3.4663     3.6025    -1.7734 H            1    LIG   0.0000
  46 H            5.3178     4.0639     0.3938 H            1    LIG   0.0000
  47 H            3.9606     4.9351     0.1372 H            1    LIG   0.0000
  48 H            1.4420     0.8679     0.1128 H            1    LIG   0.0000
  49 H            0.8679     0.1128     1.4420 H            1    LIG   0.0000
  50 H           -0.9959     1.4753     2.7457 H            1    LIG   0.0000
  51 H           -3.7043     1.6059     2.2371 H            1    LIG   0.0000
  52 H           -5.4277     3.2624     2.0541 H            1    LIG   0.0000
  53 H           -5.9110     5.7892     2.1171 H            1    LIG   0.0000
  54 H           -3.3357     5.9685    -0.3149 H            1    LIG   0.0000
  55 H           -4.3243     6.5875    -1.4578 H            1    LIG   0.0000
  56 H           -3.4750     7.5867    -0.4848 H            1    LIG   0.0000
  57 H           -2.5884     6.1257     1.1064 H            1    LIG   0.0000
  58 H           -0.8582     4.4762     1.2844 H            1    LIG   0.0000
  59 H            6.9331    -0.7608     2.5083 H            1    LIG   0.0000
  60 H            6.1635    -2.6507     3.7605 H            1    LIG   0.0000
  61 H            3.8180    -2.8330     4.2723 H            1    LIG   0.0000
  62 H            2.3228    -1.1362     3.5282 H            1    LIG   0.0000
  63 H            7.0261     3.6724    -1.9844 H            1    LIG   0.0000
  64 H            8.3002     5.2743    -3.2321 H            1    LIG   0.0000
@<TRIPOS>BOND
   1        1        2 1
   2        2        3 1
   3        3        4 ar
   4        4        5 ar
   5        5        6 ar
   6        6        7 1
   7        7        8 1
   8        8        9 1
   9        9       10 am
  10       10       11 2
  11       10       12 1
  12       12       13 1
  13       13       14 1
  14       14       15 2
  15       14       16 am
  16       16       17 1
  17       17       18 ar
  18       18       19 ar
  19       19       20 ar
  20       20       21 1
  21       21       22 am
  22       22       23 1
  23       22       24 2
  24       20       25 ar
  25       25       26 ar
  26       26       17 ar
  27       12       27 1
  28       27       28 1
  29       28        9 1
  30       28       29 2
  31       29       30 1
  32       30       31 ar
  33       31       32 ar
  34       32       33 ar
  35       33       34 ar
  36       34       35 ar
  37       35       30 ar
  38       35       27 1
  39        6       36 ar
  40       36       37 ar
  41       37        3 ar
  42       12       38 1
  43        1       39 1
  44        1       40 1
  45        1       41 1
  46        4       42 1
  47        5       43 1
  48        7       44 1
  49        7       45 1
  50        8       46 1
  51        8       47 1
  52       13       48 1
  53       13       49 1
  54       16       50 1
  55       18       51 1
  56       19       52 1
  57       21       53 1
  58       23       54 1
  59       23       55 1
  60       23       56 1
  61       25       57 1
  62       26       58 1
  63       31       59 1
  64       32       60 1
  65       33       61 1
  66       34       62 1
  67       36       63 1
  68       37       64 1

@<TRIPOS>MOLECULE

  64   68
SMALL
USER_CHARGES
@<TRIPOS>ATOM
   1 C1           6.6437     8.5001    -4.8793 C.3          1    LIG   0.0000
   2 O2           7.3853     7.4073    -4.3576 O.3          1    LIG   0.0000
   3 C3           6.6712     6.5037    -3.6535 C.ar         1    LIG   0.0000
   4 C4           5.3027     6.6859    -3.4847 C.ar         1    LIG   0.0000
   5 C5           4.5617     5.7574    -2.7609 C.ar         1    LIG   0.0000
   6 C6           5.2062     4.6526    -2.2144 C.ar         1    LIG   0.0000
   7 C7           4.4024     3.6335    -1.4230 C.3          1    LIG   0.0000
   8 C8           4.3817     4.0329     0.0434 C.3          1    LIG   0.0000
   9 N9           3.6030     3.0457     0.8101 N.am         1    LIG   0.0000
  10 C10          2.2383     3.1016     1.0561 C.2          1    LIG   0.0000
  11 O11          1.4734     3.9743     0.6855 O.2          1    LIG   0.0000
  12 C12          1.8804     1.8804     1.8804 C.3          1    LIG   0.0000
  13 C13          1.0000     1.0000     1.0000 C.3          1    LIG   0.0000
  14 C14         -0.3486     1.6719     0.7992 C.2          1    LIG   0.0000
  15 O15         -1.3526     1.1215     1.1585 O.2          1    LIG   0.0000
  16 N16         -0.4179     2.9057     0.2078 N.am         1    LIG   0.0000
  17 C17         -1.4480     3.7894     0.5508 C.ar         1    LIG   0.0000
  18 C18         -1.1697     5.1453     0.6923 C.ar         1    LIG   0.0000
  19 C19         -2.1996     6.0163     1.0322 C.ar         1    LIG   0.0000
  20 C20         -3.4878     5.5287     1.2256 C.ar         1    LIG   0.0000
  21 N21         -4.5179     6.4142     1.5669 N.am         1    LIG   0.0000
  22 C22         -5.4583     6.0467     2.4929 C.2          1    LIG   0.0000
  23 C23         -5.3837     4.6781     3.1500 C.3          1    LIG   0.0000
  24 O24         -6.3409     6.8054     2.7853 O.2          1    LIG   0.0000
  25 C25         -3.7563     4.1720     1.0815 C.ar         1    LIG   0.0000
  26 C26         -2.7331     3.2929     0.7426 C.ar         1    LIG   0.0000
  27 N27          3.1674     1.1807     2.0388 N.pl3        1    LIG   0.0000
  28 C28          4.1136     1.8968     1.4217 C.2          1    LIG   0.0000
  29 N29          5.2575     1.2761     1.5918 N.2          1    LIG   0.0000
  30 C30          5.0704     0.1273     2.3034 C.ar         1    LIG   0.0000
  31 C31          5.9617    -0.8494     2.7283 C.ar         1    LIG   0.0000
  32 C32          5.5198    -1.9487     3.4559 C.ar         1    LIG   0.0000
  33 C33          4.1645    -2.0527     3.7516 C.ar         1    LIG   0.0000
  34 C34          3.2959    -1.0549     3.3128 C.ar         1    LIG   0.0000
  35 C35          3.7307     0.0523     2.5850 C.ar         1    LIG   0.0000
  36 C36          6.5749     4.4707    -2.3832 C.ar         1    LIG   0.0000
  37 C37          7.3160     5.3993    -3.1067 C.ar         1    LIG   0.0000
  38 H            1.4518     2.1113     2.7539 H            1    LIG   0.0000
  39 H            7.2571     9.1098    -5.3814 H            1    LIG   0.0000
  40 H            5.9352     8.1578    -5.4965 H            1    LIG   0.0000
  41 H            6.2166     9.0023    -4.1274 H            1    LIG   0.0000
  42 H            4.8515     7.4842    -3.8836 H            1    LIG   0.0000
  43 H            3.5776     5.8827    -2.6350 H            1    LIG   0.0000
  44 H            4.8235     2.7313    -1.5168 H            1    LIG   0.0000
  45 H            3.4663     3.6025    -1.7734 H            1    LIG   0.0000
  46 H            5.3178     4.0639     0.3938 H            1    LIG   0.0000
  47 H            3.9606     4.9351     0.1372 H            1    LIG   0.0000
  48 H            1.4420     0.8679     0.1128 H            1    LIG   0.0000
  49 H            0.8679     0.1128     1.4420 H            1    LIG   0.0000
  50 H            0.2674     3.1751    -0.4688 H            1    LIG   0.0000
  51 H           -0.2413     5.4891     0.5514 H            1    LIG   0.0000
  52 H           -2.0137     6.9933     1.1375 H            1    LIG   0.0000
  53 H           -4.5670     7.3146     1.1346 H            1    LIG   0.0000
  54 H           -4.5934     4.1799     2.7935 H            1    LIG   0.0000
  55 H           -5.2898     4.7881     4.1395 H            1    LIG   0.0000
  56 H           -6.2189     4.1660     2.9493 H            1    LIG   0.0000
  57 H           -4.6849     3.8284     1.2215 H            1    LIG   0.0000
  58 H           -2.9190     2.3159     0.6382 H            1    LIG   0.0000
  59 H            6.9331    -0.7608     2.5083 H            1    LIG   0.0000
  60 H            6.1635    -2.6507     3.7605 H            1    LIG   0.0000
  61 H            3.8180    -2.8330     4.2723 H            1    LIG   0.0000
  62 H            2.3228    -1.1362     3.5282 H            1    LIG   0.0000
  63 H            7.0261     3.6724    -1.9844 H            1    LIG   0.0000
  64 H            8.3002     5.2743    -3.2321 H            1    LIG   0.0000
@<TRIPOS>BOND
   1        1        2 1
   2        2        3 1
   3        3        4 ar
   4        4        5 ar
   5        5        6 ar
   6        6        7 1
   7        7        8 1
   8        8        9 1
   9        9       10 am
  10       10       11 2
  11       10       12 1
  12       12       13 1
  13       13       14 1
  14       14       15 2
  15       14       16 am
  16       16       17 1
  17       17       18 ar
  18       18       19 ar
  19       19       20 ar
  20       20       21 1
  21       21       22 am
  22       22       23 1
  23       22       24 2
  24       20       25 ar
  25       25       26 ar
  26       26       17 ar
  27       12       27 1
  28       27       28 1
  29       28        9 1
  30       28       29 2
  31       29       30 1
  32       30       31 ar
  33       31       32 ar
  34       32       33 ar
  35       33       34 ar
  36       34       35 ar
  37       35       30 ar
  38       35       27 1
  39        6       36 ar
  40       36       37 ar
  41       37        3 ar
  42       12       38 1
  43        1       39 1
  44        1       40 1
  45        1       41 1
  46        4       42 1
  47        5       43 1
  48        7       44 1
  49        7       45 1
  50        8       46 1
  51        8       47 1
  52       13       48 1
  53       13       49 1
  54       16       50 1
  55       18       51 1
  56       19       52 1
  57       21       53 1
  58       23       54 1
  59       23       55 1
  60       23       56 1
  61       25       57 1
  62       26       58 1
  63       31       59 1
  64       32       60 1
  65       33       61 1
  66       34       62 1
  67       36       63 1
  68       37       64 1

@<TRIPOS>MOLECULE

  64   68
SMALL
USER_CHARGES
@<TRIPOS>ATOM
   1 C1           6.7835     8.6856    -4.4996 C.3          1    LIG   0.0000
   2 O2           7.3853     7.4073    -4.3576 O.3          1    LIG   0.0000
   3 C3           6.6712     6.5037    -3.6535 C.ar         1    LIG   0.0000
   4 C4           5.3027     6.6859    -3.4847 C.ar         1    LIG   0.0000
   5 C5           4.5617     5.7574    -2.7609 C.ar         1    LIG   0.0000
   6 C6           5.2062     4.6526    -2.2144 C.ar         1    LIG   0.0000
   7 C7           4.4024     3.6335    -1.4230 C.3          1    LIG   0.0000
   8 C8           4.3817     4.0329     0.0434 C.3          1    LIG   0.0000
   9 N9           3.6030     3.0457     0.8101 N.am         1    LIG   0.0000
  10 C10          2.2383     3.1016     1.0561 C.2          1    LIG   0.0000
  11 O11          1.4734     3.9743     0.6855 O.2          1    LIG   0.0000
  12 C12          1.8804     1.8804     1.8804 C.3          1    LIG   0.0000
  13 C13          1.0000     1.0000     1.0000 C.3          1    LIG   0.0000
  14 C14         -0.3486     1.6719     0.7992 C.2          1    LIG   0.0000
  15 O15         -0.5705     2.7359     1.3077 O.2          1    LIG   0.0000
  16 N16         -1.3107     1.0627     0.0375 N.am         1    LIG   0.0000
  17 C17         -2.2390     1.8371    -0.6682 C.ar         1    LIG   0.0000
  18 C18         -2.6130     1.4573    -1.9534 C.ar         1    LIG   0.0000
  19 C19         -3.5369     2.2321    -2.6469 C.ar         1    LIG   0.0000
  20 C20         -4.0748     3.3699    -2.0546 C.ar         1    LIG   0.0000
  21 N21         -5.0050     4.1428    -2.7610 N.am         1    LIG   0.0000
  22 C22         -4.9537     5.5100    -2.6907 C.2          1    LIG   0.0000
  23 C23         -3.8874     6.1881    -1.8460 C.3          1    LIG   0.0000
  24 O24         -5.7506     6.1722    -3.2960 O.2          1    LIG   0.0000
  25 C25         -3.6953     3.7412    -0.7695 C.ar         1    LIG   0.0000
  26 C26         -2.7715     2.9734    -0.0682 C.ar         1    LIG   0.0000
  27 N27          3.1674     1.1807     2.0388 N.pl3        1    LIG   0.0000
  28 C28          4.1136     1.8968     1.4217 C.2          1    LIG   0.0000
  29 N29          5.2575     1.2761     1.5918 N.2          1    LIG   0.0000
  30 C30          5.0704     0.1273     2.3034 C.ar         1    LIG   0.0000
  31 C31          5.9617    -0.8494     2.7283 C.ar         1    LIG   0.0000
  32 C32          5.5198    -1.9487     3.4559 C.ar         1    LIG   0.0000
  33 C33          4.1645    -2.0527     3.7516 C.ar         1    LIG   0.0000
  34 C34          3.2959    -1.0549     3.3128 C.ar         1    LIG   0.0000
  35 C35          3.7307     0.0523     2.5850 C.ar         1    LIG   0.0000
  36 C36          6.5749     4.4707    -2.3832 C.ar         1    LIG   0.0000
  37 C37          7.3160     5.3993    -3.1067 C.ar         1    LIG   0.0000
  38 H            1.4518     2.1113     2.7539 H            1    LIG   0.0000
  39 H            7.3854     9.2800    -5.0328 H            1    LIG   0.0000
  40 H            5.9064     8.5906    -4.9704 H            1    LIG   0.0000
  41 H            6.6348     9.0862    -3.5955 H            1    LIG   0.0000
  42 H            4.8515     7.4842    -3.8836 H            1    LIG   0.0000
  43 H            3.5776     5.8827    -2.6350 H            1    LIG   0.0000
  44 H            4.8235     2.7313    -1.5168 H            1    LIG   0.0000
  45 H            3.4663     3.6025    -1.7734 H            1    LIG   0.0000
  46 H            5.3178     4.0639     0.3938 H            1    LIG   0.0000
  47 H            3.9606     4.9351     0.1372 H            1    LIG   0.0000
  48 H            1.4420     0.8679     0.1128 H            1    LIG   0.0000
  49 H            0.8679     0.1128     1.4420 H            1    LIG   0.0000
  50 H           -1.3498     0.0648    -0.0143 H            1    LIG   0.0000
  51 H           -2.2226     0.6379    -2.3731 H            1    LIG   0.0000
  52 H           -3.8145     1.9710    -3.5715 H            1    LIG   0.0000
  53 H           -5.7065     3.6967    -3.3168 H            1    LIG   0.0000
  54 H           -3.3124     5.4932    -1.4142 H            1    LIG   0.0000
  55 H           -3.3228     6.7730    -2.4284 H            1    LIG   0.0000
  56 H           -4.3254     6.7443    -1.1397 H            1    LIG   0.0000
  57 H           -4.0864     4.5601    -0.3495 H            1    LIG   0.0000
  58 H           -2.4935     3.2352     0.8560 H            1    LIG   0.0000
  59 H            6.9331    -0.7608     2.5083 H            1    LIG   0.0000
  60 H            6.1635    -2.6507     3.7605 H            1    LIG   0.0000
  61 H            3.8180    -2.8330     4.2723 H            1    LIG   0.0000
  62 H            2.3228    -1.1362     3.5282 H            1    LIG   0.0000
  63 H            7.0261     3.6724    -1.9844 H            1    LIG   0.0000
  64 H            8.3002     5.2743    -3.2321 H            1    LIG   0.0000
@<TRIPOS>BOND
   1        1        2 1
   2        2        3 1
   3        3        4 ar
   4        4        5 ar
   5        5        6 ar
   6        6        7 1
   7        7        8 1
   8        8        9 1
   9        9       10 am
  10       10       11 2
  11       10       12 1
  12       12       13 1
  13       13       14 1
  14       14       15 2
  15       14       16 am
  16       16       17 1
  17       17       18 ar
  18       18       19 ar
  19       19       20 ar
  20       20       21 1
  21       21       22 am
  22       22       23 1
  23       22       24 2
  24       20       25 ar
  25       25       26 ar
  26       26       17 ar
  27       12       27 1
  28       27       28 1
  29       28        9 1
  30       28       29 2
  31       29       30 1
  32       30       31 ar
  33       31       32 ar
  34       32       33 ar
  35       33       34 ar
  36       34       35 ar
  37       35       30 ar
  38       35       27 1
  39        6       36 ar
  40       36       37 ar
  41       37        3 ar
  42       12       38 1
  43        1       39 1
  44        1       40 1
  45        1       41 1
  46        4       42 1
  47        5       43 1
  48        7       44 1
  49        7       45 1
  50        8       46 1
  51        8       47 1
  52       13       48 1
  53       13       49 1
  54       16       50 1
  55       18       51 1
  56       19       52 1
  57       21       53 1
  58       23       54 1
  59       23       55 1
  60       23       56 1
  61       25       57 1
  62       26       58 1
  63       31       59 1
  64       32       60 1
  65       33       61 1
  66       34       62 1
  67       36       63 1
  68       37       64 1

@<TRIPOS>MOLECULE

  64   68
SMALL
USER_CHARGES
@<TRIPOS>ATOM
   1 C1           6.7835     8.6856    -4.4996 C.3          1    LIG   0.0000
   2 O2           7.3853     7.4073    -4.3576 O.3          1    LIG   0.0000
   3 C3           6.6712     6.5037    -3.6535 C.ar         1    LIG   0.0000
   4 C4           5.3027     6.6859    -3.4847 C.ar         1    LIG   0.0000
   5 C5           4.5617     5.7574    -2.7609 C.ar         1    LIG   0.0000
   6 C6           5.2062     4.6526    -2.2144 C.ar         1    LIG   0.0000
   7 C7           4.4024     3.6335    -1.4230 C.3          1    LIG   0.0000
   8 C8           4.3817     4.0329     0.0434 C.3          1    LIG   0.0000
   9 N9           3.6030     3.0457     0.8101 N.am         1    LIG   0.0000
  10 C10          2.2383     3.1016     1.0561 C.2          1    LIG   0.0000
  11 O11          1.4734     3.9743     0.6855 O.2          1    LIG   0.0000
  12 C12          1.8804     1.8804     1.8804 C.3          1    LIG   0.0000
  13 C13          1.0000     1.0000     1.0000 C.3          1    LIG   0.0000
  14 C14         -0.3486     1.6719     0.7992 C.2          1    LIG   0.0000
  15 O15         -0.4314     2.6618     0.1260 O.2          1    LIG   0.0000
  16 N16         -1.4695     1.1472     1.3866 N.am         1    LIG   0.0000
  17 C17         -2.7191     1.3052     0.7757 C.ar         1    LIG   0.0000
  18 C18         -3.8511     0.7684     1.3808 C.ar         1    LIG   0.0000
  19 C19         -5.0889     0.9311     0.7673 C.ar         1    LIG   0.0000
  20 C20         -5.1836     1.6235    -0.4353 C.ar         1    LIG   0.0000
  21 N21         -6.4347     1.7825    -1.0445 N.am         1    LIG   0.0000
  22 C22         -6.6525     1.2843    -2.3020 C.2          1    LIG   0.0000
  23 C23         -8.0102     1.4568    -2.9632 C.3          1    LIG   0.0000
  24 O24         -5.7714     0.7116    -2.8814 O.2          1    LIG   0.0000
  25 C25         -4.0466     2.1569    -1.0323 C.ar         1    LIG   0.0000
  26 C26         -2.8044     1.9988    -0.4270 C.ar         1    LIG   0.0000
  27 N27          3.1674     1.1807     2.0388 N.pl3        1    LIG   0.0000
  28 C28          4.1136     1.8968     1.4217 C.2          1    LIG   0.0000
  29 N29          5.2575     1.2761     1.5918 N.2          1    LIG   0.0000
  30 C30          5.0704     0.1273     2.3034 C.ar         1    LIG   0.0000
  31 C31          5.9617    -0.8494     2.7283 C.ar         1    LIG   0.0000
  32 C32          5.5198    -1.9487     3.4559 C.ar         1    LIG   0.0000
  33 C33          4.1645    -2.0527     3.7516 C.ar         1    LIG   0.0000
  34 C34          3.2959    -1.0549     3.3128 C.ar         1    LIG   0.0000
  35 C35          3.7307     0.0523     2.5850 C.ar         1    LIG   0.0000
  36 C36          6.5749     4.4707    -2.3832 C.ar         1    LIG   0.0000
  37 C37          7.3160     5.3993    -3.1067 C.ar         1    LIG   0.0000
  38 H            1.4518     2.1113     2.7539 H            1    LIG   0.0000
  39 H            7.3854     9.2800    -5.0328 H            1    LIG   0.0000
  40 H            5.9064     8.5906    -4.9704 H            1    LIG   0.0000
  41 H            6.6348     9.0862    -3.5955 H            1    LIG   0.0000
  42 H            4.8515     7.4842    -3.8836 H            1    LIG   0.0000
  43 H            3.5776     5.8827    -2.6350 H            1    LIG   0.0000
  44 H            4.8235     2.7313    -1.5168 H            1    LIG   0.0000
  45 H            3.4663     3.6025    -1.7734 H            1    LIG   0.0000
  46 H            5.3178     4.0639     0.3938 H            1    LIG   0.0000
  47 H            3.9606     4.9351     0.1372 H            1    LIG   0.0000
  48 H            1.4420     0.8679     0.1128 H            1    LIG   0.0000
  49 H            0.8679     0.1128     1.4420 H            1    LIG   0.0000
  50 H           -1.3951     0.6514     2.2518 H            1    LIG   0.0000
  51 H           -3.7759     0.2720     2.2457 H            1    LIG   0.0000
  52 H           -5.9107     0.5502     1.1910 H            1    LIG   0.0000
  53 H           -7.1689     2.2597    -0.5617 H            1    LIG   0.0000
  54 H           -8.6211     1.9524    -2.3457 H            1    LIG   0.0000
  55 H           -7.9040     1.9736    -3.8127 H            1    LIG   0.0000
  56 H           -8.3988     0.5580    -3.1661 H            1    LIG   0.0000
  57 H           -4.1221     2.6541    -1.8966 H            1    LIG   0.0000
  58 H           -1.9826     2.3791    -0.8513 H            1    LIG   0.0000
  59 H            6.9331    -0.7608     2.5083 H            1    LIG   0.0000
  60 H            6.1635    -2.6507     3.7605 H            1    LIG   0.0000
  61 H            3.8180    -2.8330     4.2723 H            1    LIG   0.0000
  62 H            2.3228    -1.1362     3.5282 H            1    LIG   0.0000
  63 H            7.0261     3.6724    -1.9844 H            1    LIG   0.0000
  64 H            8.3002     5.2743    -3.2321 H            1    LIG   0.0000
@<TRIPOS>BOND
   1        1        2 1
   2        2        3 1
   3        3        4 ar
   4        4        5 ar
   5        5        6 ar
   6        6        7 1
   7        7        8 1
   8        8        9 1
   9        9       10 am
  10       10       11 2
  11       10       12 1
  12       12       13 1
  13       13       14 1
  14       14       15 2
  15       14       16 am
  16       16       17 1
  17       17       18 ar
  18       18       19 ar
  19       19       20 ar
  20       20       21 1
  21       21       22 am
  22       22       23 1
  23       22       24 2
  24       20       25 ar
  25       25       26 ar
  26       26       17 ar
  27       12       27 1
  28       27       28 1
  29       28        9 1
  30       28       29 2
  31       29       30 1
  32       30       31 ar
  33       31       32 ar
  34       32       33 ar
  35       33       34 ar
  36       34       35 ar
  37       35       30 ar
  38       35       27 1
  39        6       36 ar
  40       36       37 ar
  41       37        3 ar
  42       12       38 1
  43        1       39 1
  44        1       40 1
  45        1       41 1
  46        4       42 1
  47        5       43 1
  48        7       44 1
  49        7       45 1
  50        8       46 1
  51        8       47 1
  52       13       48 1
  53       13       49 1
  54       16       50 1
  55       18       51 1
  56       19       52 1
  57       21       53 1
  58       23       54 1
  59       23       55 1
  60       23       56 1
  61       25       57 1
  62       26       58 1
  63       31       59 1
  64       32       60 1
  65       33       61 1
  66       34       62 1
  67       36       63 1
  68       37       64 1

@<TRIPOS>MOLECULE

  64   68
SMALL
USER_CHARGES
@<TRIPOS>ATOM
   1 C1           6.7835     8.6856    -4.4996 C.3          1    LIG   0.0000
   2 O2           7.3853     7.4073    -4.3576 O.3          1    LIG   0.0000
   3 C3           6.6712     6.5037    -3.6535 C.ar         1    LIG   0.0000
   4 C4           5.3027     6.6859    -3.4847 C.ar         1    LIG   0.0000
   5 C5           4.5617     5.7574    -2.7609 C.ar         1    LIG   0.0000
   6 C6           5.2062     4.6526    -2.2144 C.ar         1    LIG   0.0000
   7 C7           4.4024     3.6335    -1.4230 C.3          1    LIG   0.0000
   8 C8           4.3817     4.0329     0.0434 C.3          1    LIG   0.0000
   9 N9           3.6030     3.0457     0.8101 N.am         1    LIG   0.0000
  10 C10          2.2383     3.1016     1.0561 C.2          1    LIG   0.0000
  11 O11          1.4734     3.9743     0.6855 O.2          1    LIG   0.0000
  12 C12          1.8804     1.8804     1.8804 C.3          1    LIG   0.0000
  13 C13          1.0000     1.0000     1.0000 C.3          1    LIG   0.0000
  14 C14         -0.3486     1.6719     0.7992 C.2          1    LIG   0.0000
  15 O15         -1.1181     1.7587     1.7158 O.2          1    LIG   0.0000
  16 N16         -0.6855     2.1782    -0.4284 N.am         1    LIG   0.0000
  17 C17         -2.0292     2.4102    -0.7450 C.ar         1    LIG   0.0000
  18 C18         -2.6026     1.7504    -1.8275 C.ar         1    LIG   0.0000
  19 C19         -3.9387     1.9861    -2.1342 C.ar         1    LIG   0.0000
  20 C20         -4.6840     2.8713    -1.3625 C.ar         1    LIG   0.0000
  21 N21         -6.0288     3.1011    -1.6791 N.am         1    LIG   0.0000
  22 C22         -6.9573     3.2205    -0.6789 C.2          1    LIG   0.0000
  23 C23         -6.5280     3.1037     0.7745 C.3          1    LIG   0.0000
  24 O24         -8.1096     3.4174    -0.9502 O.2          1    LIG   0.0000
  25 C25         -4.1024     3.5257    -0.2822 C.ar         1    LIG   0.0000
  26 C26         -2.7668     3.2973     0.0320 C.ar         1    LIG   0.0000
  27 N27          3.1674     1.1807     2.0388 N.pl3        1    LIG   0.0000
  28 C28          4.1136     1.8968     1.4217 C.2          1    LIG   0.0000
  29 N29          5.2575     1.2761     1.5918 N.2          1    LIG   0.0000
  30 C30          5.0704     0.1273     2.3034 C.ar         1    LIG   0.0000
  31 C31          5.9617    -0.8494     2.7283 C.ar         1    LIG   0.0000
  32 C32          5.5198    -1.9487     3.4559 C.ar         1    LIG   0.0000
  33 C33          4.1645    -2.0527     3.7516 C.ar         1    LIG   0.0000
  34 C34          3.2959    -1.0549     3.3128 C.ar         1    LIG   0.0000
  35 C35          3.7307     0.0523     2.5850 C.ar         1    LIG   0.0000
  36 C36          6.5749     4.4707    -2.3832 C.ar         1    LIG   0.0000
  37 C37          7.3160     5.3993    -3.1067 C.ar         1    LIG   0.0000
  38 H            1.4518     2.1113     2.7539 H            1    LIG   0.0000
  39 H            7.3854     9.2800    -5.0328 H            1    LIG   0.0000
  40 H            5.9064     8.5906    -4.9704 H            1    LIG   0.0000
  41 H            6.6348     9.0862    -3.5955 H            1    LIG   0.0000
  42 H            4.8515     7.4842    -3.8836 H            1    LIG   0.0000
  43 H            3.5776     5.8827    -2.6350 H            1    LIG   0.0000
  44 H            4.8235     2.7313    -1.5168 H            1    LIG   0.0000
  45 H            3.4663     3.6025    -1.7734 H            1    LIG   0.0000
  46 H            5.3178     4.0639     0.3938 H            1    LIG   0.0000
  47 H            3.9606     4.9351     0.1372 H            1    LIG   0.0000
  48 H            1.4420     0.8679     0.1128 H            1    LIG   0.0000
  49 H            0.8679     0.1128     1.4420 H            1    LIG   0.0000
  50 H            0.0284     2.3822    -1.0983 H            1    LIG   0.0000
  51 H           -2.0610     1.1150    -2.3780 H            1    LIG   0.0000
  52 H           -4.3635     1.5190    -2.9097 H            1    LIG   0.0000
  53 H           -6.3113     3.1779    -2.6353 H            1    LIG   0.0000
  54 H           -5.5423     2.9413     0.8189 H            1    LIG   0.0000
  55 H           -6.7482     3.9519     1.2563 H            1    LIG   0.0000
  56 H           -7.0112     2.3411     1.2045 H            1    LIG   0.0000
  57 H           -4.6443     4.1604     0.2688 H            1    LIG   0.0000
  58 H           -2.3421     3.7652     0.8070 H            1    LIG   0.0000
  59 H            6.9331    -0.7608     2.5083 H            1    LIG   0.0000
  60 H            6.1635    -2.6507     3.7605 H            1    LIG   0.0000
  61 H            3.8180    -2.8330     4.2723 H            1    LIG   0.0000
  62 H            2.3228    -1.1362     3.5282 H            1    LIG   0.0000
  63 H            7.0261     3.6724    -1.9844 H            1    LIG   0.0000
  64 H            8.3002     5.2743    -3.2321 H            1    LIG   0.0000
@<TRIPOS>BOND
   1        1        2 1
   2        2        3 1
   3        3        4 ar
   4        4        5 ar
   5        5        6 ar
   6        6        7 1
   7        7        8 1
   8        8        9 1
   9        9       10 am
  10       10       11 2
  11       10       12 1
  12       12       13 1
  13       13       14 1
  14       14       15 2
  15       14       16 am
  16       16       17 1
  17       17       18 ar
  18       18       19 ar
  19       19       20 ar
  20       20       21 1
  21       21       22 am
  22       22       23 1
  23       22       24 2
  24       20       25 ar
  25       25       26 ar
  26       26       17 ar
  27       12       27 1
  28       27       28 1
  29       28        9 1
  30       28       29 2
  31       29       30 1
  32       30       31 ar
  33       31       32 ar
  34       32       33 ar
  35       33       34 ar
  36       34       35 ar
  37       35       30 ar
  38       35       27 1
  39        6       36 ar
  40       36       37 ar
  41       37        3 ar
  42       12       38 1
  43        1       39 1
  44        1       40 1
  45        1       41 1
  46        4       42 1
  47        5       43 1
  48        7       44 1
  49        7       45 1
  50        8       46 1
  51        8       47 1
  52       13       48 1
  53       13       49 1
  54       16       50 1
  55       18       51 1
  56       19       52 1
  57       21       53 1
  58       23       54 1
  59       23       55 1
  60       23       56 1
  61       25       57 1
  62       26       58 1
  63       31       59 1
  64       32       60 1
  65       33       61 1
  66       34       62 1
  67       36       63 1
  68       37       64 1

@<TRIPOS>MOLECULE

  64   68
SMALL
USER_CHARGES
@<TRIPOS>ATOM
   1 C1           6.7835     8.6856    -4.4996 C.3          1    LIG   0.0000
   2 O2           7.3853     7.4073    -4.3576 O.3          1    LIG   0.0000
   3 C3           6.6712     6.5037    -3.6535 C.ar         1    LIG   0.0000
   4 C4           5.3027     6.6859    -3.4847 C.ar         1    LIG   0.0000
   5 C5           4.5617     5.7574    -2.7609 C.ar         1    LIG   0.0000
   6 C6           5.2062     4.6526    -2.2144 C.ar         1    LIG   0.0000
   7 C7           4.4024     3.6335    -1.4230 C.3          1    LIG   0.0000
   8 C8           4.3817     4.0329     0.0434 C.3          1    LIG   0.0000
   9 N9           3.6030     3.0457     0.8101 N.am         1    LIG   0.0000
  10 C10          2.2383     3.1016     1.0561 C.2          1    LIG   0.0000
  11 O11          1.4734     3.9743     0.6855 O.2          1    LIG   0.0000
  12 C12          1.8804     1.8804     1.8804 C.3          1    LIG   0.0000
  13 C13          1.0000     1.0000     1.0000 C.3          1    LIG   0.0000
  14 C14         -0.3486     1.6719     0.7992 C.2          1    LIG   0.0000
  15 O15         -0.7197     1.9538    -0.3066 O.2          1    LIG   0.0000
  16 N16         -1.1404     1.9555     1.8806 N.am         1    LIG   0.0000
  17 C17         -2.5335     1.9671     1.7442 C.ar         1    LIG   0.0000
  18 C18         -3.2781     2.9465     2.3939 C.ar         1    LIG   0.0000
  19 C19         -4.6618     2.9512     2.2519 C.ar         1    LIG   0.0000
  20 C20         -5.2840     1.9853     1.4679 C.ar         1    LIG   0.0000
  21 N21         -6.6778     1.9992     1.3307 N.am         1    LIG   0.0000
  22 C22         -7.3782     0.8219     1.3349 C.2          1    LIG   0.0000
  23 C23         -8.8668     0.8243     1.6424 C.3          1    LIG   0.0000
  24 O24         -6.8166    -0.2113     1.0959 O.2          1    LIG   0.0000
  25 C25         -4.5314     1.0108     0.8219 C.ar         1    LIG   0.0000
  26 C26         -3.1472     0.9972     0.9584 C.ar         1    LIG   0.0000
  27 N27          3.1674     1.1807     2.0388 N.pl3        1    LIG   0.0000
  28 C28          4.1136     1.8968     1.4217 C.2          1    LIG   0.0000
  29 N29          5.2575     1.2761     1.5918 N.2          1    LIG   0.0000
  30 C30          5.0704     0.1273     2.3034 C.ar         1    LIG   0.0000
  31 C31          5.9617    -0.8494     2.7283 C.ar         1    LIG   0.0000
  32 C32          5.5198    -1.9487     3.4559 C.ar         1    LIG   0.0000
  33 C33          4.1645    -2.0527     3.7516 C.ar         1    LIG   0.0000
  34 C34          3.2959    -1.0549     3.3128 C.ar         1    LIG   0.0000
  35 C35          3.7307     0.0523     2.5850 C.ar         1    LIG   0.0000
  36 C36          6.5749     4.4707    -2.3832 C.ar         1    LIG   0.0000
  37 C37          7.3160     5.3993    -3.1067 C.ar         1    LIG   0.0000
  38 H            1.4518     2.1113     2.7539 H            1    LIG   0.0000
  39 H            7.3854     9.2800    -5.0328 H            1    LIG   0.0000
  40 H            5.9064     8.5906    -4.9704 H            1    LIG   0.0000
  41 H            6.6348     9.0862    -3.5955 H            1    LIG   0.0000
  42 H            4.8515     7.4842    -3.8836 H            1    LIG   0.0000
  43 H            3.5776     5.8827    -2.6350 H            1    LIG   0.0000
  44 H            4.8235     2.7313    -1.5168 H            1    LIG   0.0000
  45 H            3.4663     3.6025    -1.7734 H            1    LIG   0.0000
  46 H            5.3178     4.0639     0.3938 H            1    LIG   0.0000
  47 H            3.9606     4.9351     0.1372 H            1    LIG   0.0000
  48 H            1.4420     0.8679     0.1128 H            1    LIG   0.0000
  49 H            0.8679     0.1128     1.4420 H            1    LIG   0.0000
  50 H           -0.7232     2.1542     2.7674 H            1    LIG   0.0000
  51 H           -2.8243     3.6382     2.9558 H            1    LIG   0.0000
  52 H           -5.2094     3.6491     2.7136 H            1    LIG   0.0000
  53 H           -7.1616     2.8686     1.2297 H            1    LIG   0.0000
  54 H           -9.1697     1.7612     1.8166 H            1    LIG   0.0000
  55 H           -9.3689     0.4513     0.8622 H            1    LIG   0.0000
  56 H           -9.0411     0.2619     2.4507 H            1    LIG   0.0000
  57 H           -4.9852     0.3197     0.2593 H            1    LIG   0.0000
  58 H           -2.6000     0.2987     0.4973 H            1    LIG   0.0000
  59 H            6.9331    -0.7608     2.5083 H            1    LIG   0.0000
  60 H            6.1635    -2.6507     3.7605 H            1    LIG   0.0000
  61 H            3.8180    -2.8330     4.2723 H            1    LIG   0.0000
  62 H            2.3228    -1.1362     3.5282 H            1    LIG   0.0000
  63 H            7.0261     3.6724    -1.9844 H            1    LIG   0.0000
  64 H            8.3002     5.2743    -3.2321 H            1    LIG   0.0000
@<TRIPOS>BOND
   1        1        2 1
   2        2        3 1
   3        3        4 ar
   4        4        5 ar
   5        5        6 ar
   6        6        7 1
   7        7        8 1
   8        8        9 1
   9        9       10 am
  10       10       11 2
  11       10       12 1
  12       12       13 1
  13       13       14 1
  14       14       15 2
  15       14       16 am
  16       16       17 1
  17       17       18 ar
  18       18       19 ar
  19       19       20 ar
  20       20       21 1
  21       21       22 am
  22       22       23 1
  23       22       24 2
  24       20       25 ar
  25       25       26 ar
  26       26       17 ar
  27       12       27 1
  28       27       28 1
  29       28        9 1
  30       28       29 2
  31       29       30 1
  32       30       31 ar
  33       31       32 ar
  34       32       33 ar
  35       33       34 ar
  36       34       35 ar
  37       35       30 ar
  38       35       27 1
  39        6       36 ar
  40       36       37 ar
  41       37        3 ar
  42       12       38 1
  43        1       39 1
  44        1       40 1
  45        1       41 1
  46        4       42 1
  47        5       43 1
  48        7       44 1
  49        7       45 1
  50        8       46 1
  51        8       47 1
  52       13       48 1
  53       13       49 1
  54       16       50 1
  55       18       51 1
  56       19       52 1
  57       21       53 1
  58       23       54 1
  59       23       55 1
  60       23       56 1
  61       25       57 1
  62       26       58 1
  63       31       59 1
  64       32       60 1
  65       33       61 1
  66       34       62 1
  67       36       63 1
  68       37       64 1

@<TRIPOS>MOLECULE

  64   68
SMALL
USER_CHARGES
@<TRIPOS>ATOM
   1 C1           6.7835     8.6856    -4.4996 C.3          1    LIG   0.0000
   2 O2           7.3853     7.4073    -4.3576 O.3          1    LIG   0.0000
   3 C3           6.6712     6.5037    -3.6535 C.ar         1    LIG   0.0000
   4 C4           5.3027     6.6859    -3.4847 C.ar         1    LIG   0.0000
   5 C5           4.5617     5.7574    -2.7609 C.ar         1    LIG   0.0000
   6 C6           5.2062     4.6526    -2.2144 C.ar         1    LIG   0.0000
   7 C7           4.4024     3.6335    -1.4230 C.3          1    LIG   0.0000
   8 C8           4.3817     4.0329     0.0434 C.3          1    LIG   0.0000
   9 N9           3.6030     3.0457     0.8101 N.am         1    LIG   0.0000
  10 C10          2.2383     3.1016     1.0561 C.2          1    LIG   0.0000
  11 O11          1.4734     3.9743     0.6855 O.2          1    LIG   0.0000
  12 C12          1.8804     1.8804     1.8804 C.3          1    LIG   0.0000
  13 C13          1.0000     1.0000     1.0000 C.3          1    LIG   0.0000
  14 C14         -0.3486     1.6719     0.7992 C.2          1    LIG   0.0000
  15 O15         -0.7197     1.9538    -0.3066 O.2          1    LIG   0.0000
  16 N16         -1.1404     1.9555     1.8806 N.am         1    LIG   0.0000
  17 C17         -2.0068     3.0544     1.8446 C.ar         1    LIG   0.0000
  18 C18         -1.8624     4.0726     2.7818 C.ar         1    LIG   0.0000
  19 C19         -2.7270     5.1613     2.7380 C.ar         1    LIG   0.0000
  20 C20         -3.7198     5.2226     1.7657 C.ar         1    LIG   0.0000
  21 N21         -4.5848     6.3236     1.7297 N.am         1    LIG   0.0000
  22 C22         -5.9160     6.1403     1.4630 C.2          1    LIG   0.0000
  23 C23         -6.8548     7.3351     1.4239 C.3          1    LIG   0.0000
  24 O24         -6.3409     5.0365     1.2602 O.2          1    LIG   0.0000
  25 C25         -3.8561     4.2004     0.8330 C.ar         1    LIG   0.0000
  26 C26         -2.9969     3.1072     0.8691 C.ar         1    LIG   0.0000
  27 N27          3.1674     1.1807     2.0388 N.pl3        1    LIG   0.0000
  28 C28          4.1136     1.8968     1.4217 C.2          1    LIG   0.0000
  29 N29          5.2575     1.2761     1.5918 N.2          1    LIG   0.0000
  30 C30          5.0704     0.1273     2.3034 C.ar         1    LIG   0.0000
  31 C31          5.9617    -0.8494     2.7283 C.ar         1    LIG   0.0000
  32 C32          5.5198    -1.9487     3.4559 C.ar         1    LIG   0.0000
  33 C33          4.1645    -2.0527     3.7516 C.ar         1    LIG   0.0000
  34 C34          3.2959    -1.0549     3.3128 C.ar         1    LIG   0.0000
  35 C35          3.7307     0.0523     2.5850 C.ar         1    LIG   0.0000
  36 C36          6.5749     4.4707    -2.3832 C.ar         1    LIG   0.0000
  37 C37          7.3160     5.3993    -3.1067 C.ar         1    LIG   0.0000
  38 H            1.4518     2.1113     2.7539 H            1    LIG   0.0000
  39 H            7.3854     9.2800    -5.0328 H            1    LIG   0.0000
  40 H            5.9064     8.5906    -4.9704 H            1    LIG   0.0000
  41 H            6.6348     9.0862    -3.5955 H            1    LIG   0.0000
  42 H            4.8515     7.4842    -3.8836 H            1    LIG   0.0000
  43 H            3.5776     5.8827    -2.6350 H            1    LIG   0.0000
  44 H            4.8235     2.7313    -1.5168 H            1    LIG   0.0000
  45 H            3.4663     3.6025    -1.7734 H            1    LIG   0.0000
  46 H            5.3178     4.0639     0.3938 H            1    LIG   0.0000
  47 H            3.9606     4.9351     0.1372 H            1    LIG   0.0000
  48 H            1.4420     0.8679     0.1128 H            1    LIG   0.0000
  49 H            0.8679     0.1128     1.4420 H            1    LIG   0.0000
  50 H           -1.0994     1.3775     2.6956 H            1    LIG   0.0000
  51 H           -1.1462     4.0223     3.4779 H            1    LIG   0.0000
  52 H           -2.6348     5.9001     3.4057 H            1    LIG   0.0000
  53 H           -4.2307     7.2434     1.8987 H            1    LIG   0.0000
  54 H           -6.3390     8.1706     1.6132 H            1    LIG   0.0000
  55 H           -7.2740     7.4002     0.5183 H            1    LIG   0.0000
  56 H           -7.5691     7.2206     2.1143 H            1    LIG   0.0000
  57 H           -4.5717     4.2512     0.1363 H            1    LIG   0.0000
  58 H           -3.0898     2.3682     0.2018 H            1    LIG   0.0000
  59 H            6.9331    -0.7608     2.5083 H            1    LIG   0.0000
  60 H            6.1635    -2.6507     3.7605 H            1    LIG   0.0000
  61 H            3.8180    -2.8330     4.2723 H            1    LIG   0.0000
  62 H            2.3228    -1.1362     3.5282 H            1    LIG   0.0000
  63 H            7.0261     3.6724    -1.9844 H            1    LIG   0.0000
  64 H            8.3002     5.2743    -3.2321 H            1    LIG   0.0000
@<TRIPOS>BOND
   1        1        2 1
   2        2        3 1
   3        3        4 ar
   4        4        5 ar
   5        5        6 ar
   6        6        7 1
   7        7        8 1
   8        8        9 1
   9        9       10 am
  10       10       11 2
  11       10       12 1
  12       12       13 1
  13       13       14 1
  14       14       15 2
  15       14       16 am
  16       16       17 1
  17       17       18 ar
  18       18       19 ar
  19       19       20 ar
  20       20       21 1
  21       21       22 am
  22       22       23 1
  23       22       24 2
  24       20       25 ar
  25       25       26 ar
  26       26       17 ar
  27       12       27 1
  28       27       28 1
  29       28        9 1
  30       28       29 2
  31       29       30 1
  32       30       31 ar
  33       31       32 ar
  34       32       33 ar
  35       33       34 ar
  36       34       35 ar
  37       35       30 ar
  38       35       27 1
  39        6       36 ar
  40       36       37 ar
  41       37        3 ar
  42       12       38 1
  43        1       39 1
  44        1       40 1
  45        1       41 1
  46        4       42 1
  47        5       43 1
  48        7       44 1
  49        7       45 1
  50        8       46 1
  51        8       47 1
  52       13       48 1
  53       13       49 1
  54       16       50 1
  55       18       51 1
  56       19       52 1
  57       21       53 1
  58       23       54 1
  59       23       55 1
  60       23       56 1
  61       25       57 1
  62       26       58 1
  63       31       59 1
  64       32       60 1
  65       33       61 1
  66       34       62 1
  67       36       63 1
  68       37       64 1

