@<TRIPOS>MOLECULE
*****
 64 68 0 0 0
SMALL
USER_CHARGES

@<TRIPOS>ATOM
      1 C1          6.7835    8.6856   -4.4996 C.3     1  LIG1        0.0000
      2 O2          7.3853    7.4073   -4.3576 O.2     1  LIG1        0.0000
      3 C3          6.6712    6.5037   -3.6535 C.3     1  LIG1        0.0000
      4 C4          5.3027    6.6859   -3.4847 C.3     1  LIG1        0.0000
      5 C5          4.5617    5.7574   -2.7609 C.3     1  LIG1        0.0000
      6 C6          5.2062    4.6526   -2.2144 C.3     1  LIG1        0.0000
      7 C7          4.4024    3.6335   -1.4230 C.3     1  LIG1        0.0000
      8 C8          4.3817    4.0329    0.0434 C.3     1  LIG1        0.0000
      9 N9          3.6030    3.0457    0.8101 N.am    1  LIG1        0.0000
     10 C10         2.2383    3.1016    1.0561 C.2     1  LIG1        0.0000
     11 O11         1.4734    3.9743    0.6855 O.2     1  LIG1        0.0000
     12 C12         1.8804    1.8804    1.8804 C.3     1  LIG1        0.0000
     13 C13         1.0000    1.0000    1.0000 C.3     1  LIG1        0.0000
     14 C14        -0.3486    1.6719    0.7992 C.2     1  LIG1        0.0000
     15 O15        -0.5705    2.7359    1.3077 O.2     1  LIG1        0.0000
     16 N16        -1.3107    1.0627    0.0375 N.am    1  LIG1        0.0000
     17 C17        -2.2390    1.8371   -0.6682 C.3     1  LIG1        0.0000
     18 C18        -2.6130    1.4573   -1.9534 C.3     1  LIG1        0.0000
     19 C19        -3.5369    2.2321   -2.6469 C.3     1  LIG1        0.0000
     20 C20        -4.0748    3.3699   -2.0546 C.3     1  LIG1        0.0000
     21 N21        -5.0050    4.1428   -2.7610 N.am    1  LIG1        0.0000
     22 C22        -4.9537    5.5100   -2.6907 C.2     1  LIG1        0.0000
     23 C23        -3.8874    6.1881   -1.8460 C.3     1  LIG1        0.0000
     24 O24        -5.7506    6.1722   -3.2960 O.2     1  LIG1        0.0000
     25 C25        -3.6953    3.7412   -0.7695 C.3     1  LIG1        0.0000
     26 C26        -2.7715    2.9734   -0.0682 C.3     1  LIG1        0.0000
     27 N27         3.1674    1.1807    2.0388 N.pl3   1  LIG1        0.0000
     28 C28         4.1136    1.8968    1.4217 C.2     1  LIG1        0.0000
     29 N29         5.2575    1.2761    1.5918 N.2     1  LIG1        0.0000
     30 C30         5.0704    0.1273    2.3034 C.3     1  LIG1        0.0000
     31 C31         5.9617   -0.8494    2.7283 C.3     1  LIG1        0.0000
     32 C32         5.5198   -1.9487    3.4559 C.3     1  LIG1        0.0000
     33 C33         4.1645   -2.0527    3.7516 C.3     1  LIG1        0.0000
     34 C34         3.2959   -1.0549    3.3128 C.3     1  LIG1        0.0000
     35 C35         3.7307    0.0523    2.5850 C.3     1  LIG1        0.0000
     36 C36         6.5749    4.4707   -2.3832 C.3     1  LIG1        0.0000
     37 C37         7.3160    5.3993   -3.1067 C.3     1  LIG1        0.0000
     38 H           1.4518    2.1113    2.7539 H       1  LIG1        0.0000
     39 H           7.3854    9.2800   -5.0328 H       1  LIG1        0.0000
     40 H           5.9064    8.5906   -4.9704 H       1  LIG1        0.0000
     41 H           6.6348    9.0862   -3.5955 H       1  LIG1        0.0000
     42 H           4.8515    7.4842   -3.8836 H       1  LIG1        0.0000
     43 H           3.5776    5.8827   -2.6350 H       1  LIG1        0.0000
     44 H           4.8235    2.7313   -1.5168 H       1  LIG1        0.0000
     45 H           3.4663    3.6025   -1.7734 H       1  LIG1        0.0000
     46 H           5.3178    4.0639    0.3938 H       1  LIG1        0.0000
     47 H           3.9606    4.9351    0.1372 H       1  LIG1        0.0000
     48 H           1.4420    0.8679    0.1128 H       1  LIG1        0.0000
     49 H           0.8679    0.1128    1.4420 H       1  LIG1        0.0000
     50 H          -1.3498    0.0648   -0.0143 H       1  LIG1        0.0000
     51 H          -2.2226    0.6379   -2.3731 H       1  LIG1        0.0000
     52 H          -3.8145    1.9710   -3.5715 H       1  LIG1        0.0000
     53 H          -5.7065    3.6967   -3.3168 H       1  LIG1        0.0000
     54 H          -3.3124    5.4932   -1.4142 H       1  LIG1        0.0000
     55 H          -3.3228    6.7730   -2.4284 H       1  LIG1        0.0000
     56 H          -4.3254    6.7443   -1.1397 H       1  LIG1        0.0000
     57 H          -4.0864    4.5601   -0.3495 H       1  LIG1        0.0000
     58 H          -2.4935    3.2352    0.8560 H       1  LIG1        0.0000
     59 H           6.9331   -0.7608    2.5083 H       1  LIG1        0.0000
     60 H           6.1635   -2.6507    3.7605 H       1  LIG1        0.0000
     61 H           3.8180   -2.8330    4.2723 H       1  LIG1        0.0000
     62 H           2.3228   -1.1362    3.5282 H       1  LIG1        0.0000
     63 H           7.0261    3.6724   -1.9844 H       1  LIG1        0.0000
     64 H           8.3002    5.2743   -3.2321 H       1  LIG1        0.0000
@<TRIPOS>BOND
     1     1     2    1
     2     2     3    1
     3     3     4   ar
     4     4     5   ar
     5     5     6   ar
     6     6     7    1
     7     7     8    1
     8     8     9    1
     9     9    10   am
    10    10    11    2
    11    10    12    1
    12    12    13    1
    13    13    14    1
    14    14    15    2
    15    14    16   am
    16    16    17    1
    17    17    18   ar
    18    18    19   ar
    19    19    20   ar
    20    20    21    1
    21    21    22   am
    22    22    23    1
    23    22    24    2
    24    20    25   ar
    25    25    26   ar
    26    26    17   ar
    27    12    27    1
    28    27    28    1
    29    28     9    1
    30    28    29    2
    31    29    30    1
    32    30    31   ar
    33    31    32   ar
    34    32    33   ar
    35    33    34   ar
    36    34    35   ar
    37    35    30   ar
    38    35    27    1
    39     6    36   ar
    40    36    37   ar
    41    37     3   ar
    42    12    38    1
    43     1    39    1
    44     1    40    1
    45     1    41    1
    46     4    42    1
    47     5    43    1
    48     7    44    1
    49     7    45    1
    50     8    46    1
    51     8    47    1
    52    13    48    1
    53    13    49    1
    54    16    50    1
    55    18    51    1
    56    19    52    1
    57    21    53    1
    58    23    54    1
    59    23    55    1
    60    23    56    1
    61    25    57    1
    62    26    58    1
    63    31    59    1
    64    32    60    1
    65    33    61    1
    66    34    62    1
    67    36    63    1
    68    37    64    1
