@<TRIPOS>MOLECULE

  68   71
SMALL
USER_CHARGES
@<TRIPOS>ATOM
   1 C1           1.5481    -2.7254     2.8377 C.3          1    LIG   0.0000
   2 C2           0.3926    -3.0224     1.8960 C.3          1    LIG   0.0000
   3 C3          -0.7966    -2.1503     2.2625 C.2          1    LIG   0.0000
   4 N4          -1.4166    -2.1406     3.4171 N.2          1    LIG   0.0000
   5 N5          -2.3962    -1.2693     3.3793 N.pl3        1    LIG   0.0000
   6 C6          -3.3148    -0.9777     4.4905 C.3          1    LIG   0.0000
   7 C7          -2.4313    -0.6673     2.1585 C.2          1    LIG   0.0000
   8 C8          -3.4111     0.4035     1.7072 C.3          1    LIG   0.0000
   9 C9          -4.8284    -0.1397     1.7887 C.3          1    LIG   0.0000
  10 C10         -1.4242    -1.2087     1.4221 C.2          1    LIG   0.0000
  11 C11         -1.0507    -0.8686    -0.0109 C.3          1    LIG   0.0000
  12 N12          0.0969     0.0481    -0.0133 N.pl3        1    LIG   0.0000
  13 C13          1.4071    -0.3124    -0.0293 C.2          1    LIG   0.0000
  14 C14          1.9417    -1.6620    -0.0557 C.2          1    LIG   0.0000
  15 C15          3.0369    -2.1216     0.6195 C.2          1    LIG   0.0000
  16 C16          3.3218    -3.4921     0.3472 C.2          1    LIG   0.0000
  17 C17          2.4275    -4.1237    -0.4863 C.2          1    LIG   0.0000
  18 S18          1.2905    -2.9510    -0.9606 S.3          1    LIG   0.0000
  19 C19          2.3348    -5.5546    -0.9895 C.3          1    LIG   0.0000
  20 C20          2.9813    -6.4925     0.0201 C.3          1    LIG   0.0000
  21 C21          4.4950    -6.5289    -0.1433 C.3          1    LIG   0.0000
  22 C22          5.1650    -5.1630    -0.0703 C.3          1    LIG   0.0000
  23 C23          4.5309    -4.2073     0.9338 C.3          1    LIG   0.0000
  24 N24          2.0962     0.7986    -0.0261 N.2          1    LIG   0.0000
  25 N25          1.2800     1.8369     0.0092 N.2          1    LIG   0.0000
  26 C26          0.0401     1.4086     0.0104 C.2          1    LIG   0.0000
  27 N27         -1.1148     2.1984     0.0321 N.pl3        1    LIG   0.0000
  28 C28         -1.7302     2.6355    -1.2292 C.3          1    LIG   0.0000
  29 C29         -1.7125     2.5911     1.3164 C.3          1    LIG   0.0000
  30 C30         -3.1625     2.9920     1.0989 C.3          1    LIG   0.0000
  31 C31         -0.9430     3.7674     1.8949 C.3          1    LIG   0.0000
  32 C32         -1.5611     4.1735     3.2228 C.1          1    LIG   0.0000
  33 N33         -2.0246     4.4780     4.2188 N.1          1    LIG   0.0000
  34 H           -1.6715     1.8207     1.9526 H            1    LIG   0.0000
  35 H            2.3307    -3.2993     2.5965 H            1    LIG   0.0000
  36 H            1.8040    -1.7620     2.7578 H            1    LIG   0.0000
  37 H            1.2698    -2.9194     3.7784 H            1    LIG   0.0000
  38 H            0.6709    -2.8284     0.9553 H            1    LIG   0.0000
  39 H            0.1366    -3.9858     1.9759 H            1    LIG   0.0000
  40 H           -3.9694    -0.2770     4.2068 H            1    LIG   0.0000
  41 H           -3.8069    -1.8106     4.7435 H            1    LIG   0.0000
  42 H           -2.7926    -0.6472     5.2767 H            1    LIG   0.0000
  43 H           -3.2080     0.6648     0.7636 H            1    LIG   0.0000
  44 H           -3.3264     1.2042     2.3004 H            1    LIG   0.0000
  45 H           -5.4730     0.5648     1.4918 H            1    LIG   0.0000
  46 H           -4.9131    -0.9404     1.1956 H            1    LIG   0.0000
  47 H           -5.0314    -0.4010     2.7324 H            1    LIG   0.0000
  48 H           -0.8089    -1.7066    -0.5002 H            1    LIG   0.0000
  49 H           -1.8279    -0.4310    -0.4630 H            1    LIG   0.0000
  50 H            3.5814    -1.5565     1.2393 H            1    LIG   0.0000
  51 H            2.8096    -5.6307    -1.8663 H            1    LIG   0.0000
  52 H            1.3738    -5.8043    -1.1082 H            1    LIG   0.0000
  53 H            2.6176    -7.4144    -0.1132 H            1    LIG   0.0000
  54 H            2.7615    -6.1777     0.9435 H            1    LIG   0.0000
  55 H            4.7045    -6.9336    -1.0334 H            1    LIG   0.0000
  56 H            4.8748    -7.1034     0.5818 H            1    LIG   0.0000
  57 H            6.1223    -5.2968     0.1858 H            1    LIG   0.0000
  58 H            5.1179    -4.7421    -0.9762 H            1    LIG   0.0000
  59 H            4.2411    -4.7274     1.7373 H            1    LIG   0.0000
  60 H            5.2102    -3.5255     1.2053 H            1    LIG   0.0000
  61 H           -2.5404     3.1873    -1.0312 H            1    LIG   0.0000
  62 H           -1.0735     3.1821    -1.7488 H            1    LIG   0.0000
  63 H           -1.9955     1.8344    -1.7658 H            1    LIG   0.0000
  64 H           -3.5691     3.2592     1.9726 H            1    LIG   0.0000
  65 H           -3.2035     3.7625     0.4627 H            1    LIG   0.0000
  66 H           -3.6688     2.2182     0.7183 H            1    LIG   0.0000
  67 H            0.0109     3.5037     2.0380 H            1    LIG   0.0000
  68 H           -0.9840     4.5378     1.2587 H            1    LIG   0.0000
@<TRIPOS>BOND
   1        1        2 1
   2        2        3 1
   3        3        4 2
   4        4        5 1
   5        5        6 1
   6        5        7 1
   7        7        8 1
   8        8        9 1
   9        7       10 2
  10       10        3 1
  11       10       11 1
  12       11       12 1
  13       12       13 1
  14       13       14 1
  15       14       15 2
  16       15       16 1
  17       16       17 2
  18       17       18 1
  19       18       14 1
  20       17       19 1
  21       19       20 1
  22       20       21 1
  23       21       22 1
  24       22       23 1
  25       23       16 1
  26       13       24 2
  27       24       25 1
  28       25       26 2
  29       26       12 1
  30       26       27 1
  31       27       28 1
  32       27       29 1
  33       29       30 1
  34       29       31 1
  35       31       32 1
  36       32       33 3
  37       29       34 1
  38        1       35 1
  39        1       36 1
  40        1       37 1
  41        2       38 1
  42        2       39 1
  43        6       40 1
  44        6       41 1
  45        6       42 1
  46        8       43 1
  47        8       44 1
  48        9       45 1
  49        9       46 1
  50        9       47 1
  51       11       48 1
  52       11       49 1
  53       15       50 1
  54       19       51 1
  55       19       52 1
  56       20       53 1
  57       20       54 1
  58       21       55 1
  59       21       56 1
  60       22       57 1
  61       22       58 1
  62       23       59 1
  63       23       60 1
  64       28       61 1
  65       28       62 1
  66       28       63 1
  67       30       64 1
  68       30       65 1
  69       30       66 1
  70       31       67 1
  71       31       68 1

@<TRIPOS>MOLECULE

  68   71
SMALL
USER_CHARGES
@<TRIPOS>ATOM
   1 C1          -4.8605    -0.1147     1.7869 C.3          1    LIG   0.0000
   2 C2          -3.4407     0.4231     1.7146 C.3          1    LIG   0.0000
   3 C3          -2.4691    -0.6473     2.1833 C.2          1    LIG   0.0000
   4 N4          -2.4584    -1.2117     3.3661 N.2          1    LIG   0.0000
   5 N5          -1.4838    -2.0876     3.4229 N.pl3        1    LIG   0.0000
   6 C6          -1.1594    -2.9203     4.5913 C.3          1    LIG   0.0000
   7 C7          -0.8207    -2.1177     2.2341 C.2          1    LIG   0.0000
   8 C8           0.3679    -2.9985     1.8847 C.3          1    LIG   0.0000
   9 C9           1.5162    -2.7000     2.8348 C.3          1    LIG   0.0000
  10 C10         -1.4242    -1.2087     1.4221 C.2          1    LIG   0.0000
  11 C11         -1.0507    -0.8686    -0.0109 C.3          1    LIG   0.0000
  12 N12          0.0969     0.0481    -0.0133 N.pl3        1    LIG   0.0000
  13 C13          1.4071    -0.3124    -0.0293 C.2          1    LIG   0.0000
  14 C14          1.9417    -1.6620    -0.0557 C.2          1    LIG   0.0000
  15 C15          3.0369    -2.1216     0.6195 C.2          1    LIG   0.0000
  16 C16          3.3218    -3.4921     0.3472 C.2          1    LIG   0.0000
  17 C17          2.4275    -4.1237    -0.4863 C.2          1    LIG   0.0000
  18 S18          1.2905    -2.9510    -0.9606 S.3          1    LIG   0.0000
  19 C19          2.3348    -5.5546    -0.9895 C.3          1    LIG   0.0000
  20 C20          2.9813    -6.4925     0.0201 C.3          1    LIG   0.0000
  21 C21          4.4950    -6.5289    -0.1433 C.3          1    LIG   0.0000
  22 C22          5.1650    -5.1630    -0.0703 C.3          1    LIG   0.0000
  23 C23          4.5309    -4.2073     0.9338 C.3          1    LIG   0.0000
  24 N24          2.0962     0.7986    -0.0261 N.2          1    LIG   0.0000
  25 N25          1.2800     1.8369     0.0092 N.2          1    LIG   0.0000
  26 C26          0.0401     1.4086     0.0104 C.2          1    LIG   0.0000
  27 N27         -1.1148     2.1984     0.0321 N.pl3        1    LIG   0.0000
  28 C28         -1.7302     2.6355    -1.2292 C.3          1    LIG   0.0000
  29 C29         -1.7125     2.5911     1.3164 C.3          1    LIG   0.0000
  30 C30         -3.1625     2.9920     1.0989 C.3          1    LIG   0.0000
  31 C31         -0.9430     3.7674     1.8949 C.3          1    LIG   0.0000
  32 C32         -1.5611     4.1735     3.2228 C.1          1    LIG   0.0000
  33 N33         -2.0246     4.4780     4.2188 N.1          1    LIG   0.0000
  34 H           -1.6715     1.8207     1.9526 H            1    LIG   0.0000
  35 H           -5.4999     0.5897     1.4785 H            1    LIG   0.0000
  36 H           -4.9424    -0.9196     1.1993 H            1    LIG   0.0000
  37 H           -5.0734    -0.3679     2.7306 H            1    LIG   0.0000
  38 H           -3.2278     0.6763     0.7709 H            1    LIG   0.0000
  39 H           -3.3588     1.2280     2.3023 H            1    LIG   0.0000
  40 H           -0.3752    -3.5030     4.3780 H            1    LIG   0.0000
  41 H           -0.9357    -2.3318     5.3682 H            1    LIG   0.0000
  42 H           -1.9466    -3.4921     4.8220 H            1    LIG   0.0000
  43 H            0.6556    -2.8128     0.9452 H            1    LIG   0.0000
  44 H            0.1065    -3.9600     1.9695 H            1    LIG   0.0000
  45 H            2.2982    -3.2795     2.6049 H            1    LIG   0.0000
  46 H            1.7776    -1.7385     2.7501 H            1    LIG   0.0000
  47 H            1.2285    -2.8857     3.7743 H            1    LIG   0.0000
  48 H           -0.8089    -1.7066    -0.5002 H            1    LIG   0.0000
  49 H           -1.8279    -0.4310    -0.4630 H            1    LIG   0.0000
  50 H            3.5814    -1.5565     1.2393 H            1    LIG   0.0000
  51 H            2.8096    -5.6307    -1.8663 H            1    LIG   0.0000
  52 H            1.3738    -5.8043    -1.1082 H            1    LIG   0.0000
  53 H            2.6176    -7.4144    -0.1132 H            1    LIG   0.0000
  54 H            2.7615    -6.1777     0.9435 H            1    LIG   0.0000
  55 H            4.7045    -6.9336    -1.0334 H            1    LIG   0.0000
  56 H            4.8748    -7.1034     0.5818 H            1    LIG   0.0000
  57 H            6.1223    -5.2968     0.1858 H            1    LIG   0.0000
  58 H            5.1179    -4.7421    -0.9762 H            1    LIG   0.0000
  59 H            4.2411    -4.7274     1.7373 H            1    LIG   0.0000
  60 H            5.2102    -3.5255     1.2053 H            1    LIG   0.0000
  61 H           -2.5404     3.1873    -1.0312 H            1    LIG   0.0000
  62 H           -1.0735     3.1821    -1.7488 H            1    LIG   0.0000
  63 H           -1.9955     1.8344    -1.7658 H            1    LIG   0.0000
  64 H           -3.5691     3.2592     1.9726 H            1    LIG   0.0000
  65 H           -3.2035     3.7625     0.4627 H            1    LIG   0.0000
  66 H           -3.6688     2.2182     0.7183 H            1    LIG   0.0000
  67 H            0.0109     3.5037     2.0380 H            1    LIG   0.0000
  68 H           -0.9840     4.5378     1.2587 H            1    LIG   0.0000
@<TRIPOS>BOND
   1        1        2 1
   2        2        3 1
   3        3        4 2
   4        4        5 1
   5        5        6 1
   6        5        7 1
   7        7        8 1
   8        8        9 1
   9        7       10 2
  10       10        3 1
  11       10       11 1
  12       11       12 1
  13       12       13 1
  14       13       14 1
  15       14       15 2
  16       15       16 1
  17       16       17 2
  18       17       18 1
  19       18       14 1
  20       17       19 1
  21       19       20 1
  22       20       21 1
  23       21       22 1
  24       22       23 1
  25       23       16 1
  26       13       24 2
  27       24       25 1
  28       25       26 2
  29       26       12 1
  30       26       27 1
  31       27       28 1
  32       27       29 1
  33       29       30 1
  34       29       31 1
  35       31       32 1
  36       32       33 3
  37       29       34 1
  38        1       35 1
  39        1       36 1
  40        1       37 1
  41        2       38 1
  42        2       39 1
  43        6       40 1
  44        6       41 1
  45        6       42 1
  46        8       43 1
  47        8       44 1
  48        9       45 1
  49        9       46 1
  50        9       47 1
  51       11       48 1
  52       11       49 1
  53       15       50 1
  54       19       51 1
  55       19       52 1
  56       20       53 1
  57       20       54 1
  58       21       55 1
  59       21       56 1
  60       22       57 1
  61       22       58 1
  62       23       59 1
  63       23       60 1
  64       28       61 1
  65       28       62 1
  66       28       63 1
  67       30       64 1
  68       30       65 1
  69       30       66 1
  70       31       67 1
  71       31       68 1

@<TRIPOS>MOLECULE

  68   71
SMALL
USER_CHARGES
@<TRIPOS>ATOM
   1 C1          -4.8605    -0.1147     1.7869 C.3          1    LIG   0.0000
   2 C2          -3.4407     0.4231     1.7146 C.3          1    LIG   0.0000
   3 C3          -2.4691    -0.6473     2.1833 C.2          1    LIG   0.0000
   4 N4          -2.4584    -1.2117     3.3661 N.2          1    LIG   0.0000
   5 N5          -1.4838    -2.0876     3.4229 N.pl3        1    LIG   0.0000
   6 C6          -1.1594    -2.9203     4.5913 C.3          1    LIG   0.0000
   7 C7          -0.8207    -2.1177     2.2341 C.2          1    LIG   0.0000
   8 C8           0.3679    -2.9985     1.8847 C.3          1    LIG   0.0000
   9 C9           1.5162    -2.7000     2.8348 C.3          1    LIG   0.0000
  10 C10         -1.4242    -1.2087     1.4221 C.2          1    LIG   0.0000
  11 C11         -1.0507    -0.8686    -0.0109 C.3          1    LIG   0.0000
  12 N12          0.0969     0.0481    -0.0133 N.pl3        1    LIG   0.0000
  13 C13          1.4071    -0.3124    -0.0293 C.2          1    LIG   0.0000
  14 C14          1.9417    -1.6620    -0.0557 C.2          1    LIG   0.0000
  15 C15          3.0369    -2.1216     0.6195 C.2          1    LIG   0.0000
  16 C16          3.3218    -3.4921     0.3472 C.2          1    LIG   0.0000
  17 C17          2.4275    -4.1237    -0.4863 C.2          1    LIG   0.0000
  18 S18          1.2905    -2.9510    -0.9606 S.3          1    LIG   0.0000
  19 C19          2.3348    -5.5546    -0.9895 C.3          1    LIG   0.0000
  20 C20          2.9813    -6.4925     0.0201 C.3          1    LIG   0.0000
  21 C21          4.4950    -6.5289    -0.1433 C.3          1    LIG   0.0000
  22 C22          5.1650    -5.1630    -0.0703 C.3          1    LIG   0.0000
  23 C23          4.5309    -4.2073     0.9338 C.3          1    LIG   0.0000
  24 N24          2.0962     0.7986    -0.0261 N.2          1    LIG   0.0000
  25 N25          1.2800     1.8369     0.0092 N.2          1    LIG   0.0000
  26 C26          0.0401     1.4086     0.0104 C.2          1    LIG   0.0000
  27 N27         -1.1148     2.1984     0.0321 N.pl3        1    LIG   0.0000
  28 C28         -1.7125     2.5911     1.3164 C.3          1    LIG   0.0000
  29 C29         -1.7302     2.6355    -1.2292 C.3          1    LIG   0.0000
  30 C30         -1.9777     4.1344    -1.1796 C.3          1    LIG   0.0000
  31 C31         -3.0513     1.9101    -1.4265 C.3          1    LIG   0.0000
  32 C32         -3.6877     2.3620    -2.7307 C.1          1    LIG   0.0000
  33 N33         -4.1650     2.7010    -3.7090 N.1          1    LIG   0.0000
  34 H           -1.1169     2.4239    -1.9902 H            1    LIG   0.0000
  35 H           -5.4999     0.5897     1.4785 H            1    LIG   0.0000
  36 H           -4.9424    -0.9196     1.1993 H            1    LIG   0.0000
  37 H           -5.0734    -0.3679     2.7306 H            1    LIG   0.0000
  38 H           -3.2278     0.6763     0.7709 H            1    LIG   0.0000
  39 H           -3.3588     1.2280     2.3023 H            1    LIG   0.0000
  40 H           -0.3752    -3.5030     4.3780 H            1    LIG   0.0000
  41 H           -0.9357    -2.3318     5.3682 H            1    LIG   0.0000
  42 H           -1.9466    -3.4921     4.8220 H            1    LIG   0.0000
  43 H            0.6556    -2.8128     0.9452 H            1    LIG   0.0000
  44 H            0.1065    -3.9600     1.9695 H            1    LIG   0.0000
  45 H            2.2982    -3.2795     2.6049 H            1    LIG   0.0000
  46 H            1.7776    -1.7385     2.7501 H            1    LIG   0.0000
  47 H            1.2285    -2.8857     3.7743 H            1    LIG   0.0000
  48 H           -0.8089    -1.7066    -0.5002 H            1    LIG   0.0000
  49 H           -1.8279    -0.4310    -0.4630 H            1    LIG   0.0000
  50 H            3.5814    -1.5565     1.2393 H            1    LIG   0.0000
  51 H            2.8096    -5.6307    -1.8663 H            1    LIG   0.0000
  52 H            1.3738    -5.8043    -1.1082 H            1    LIG   0.0000
  53 H            2.6176    -7.4144    -0.1132 H            1    LIG   0.0000
  54 H            2.7615    -6.1777     0.9435 H            1    LIG   0.0000
  55 H            4.7045    -6.9336    -1.0334 H            1    LIG   0.0000
  56 H            4.8748    -7.1034     0.5818 H            1    LIG   0.0000
  57 H            6.1223    -5.2968     0.1858 H            1    LIG   0.0000
  58 H            5.1179    -4.7421    -0.9762 H            1    LIG   0.0000
  59 H            4.2411    -4.7274     1.7373 H            1    LIG   0.0000
  60 H            5.2102    -3.5255     1.2053 H            1    LIG   0.0000
  61 H           -2.5252     3.1493     1.1490 H            1    LIG   0.0000
  62 H           -1.9705     1.7718     1.8284 H            1    LIG   0.0000
  63 H           -1.0485     3.1195     1.8455 H            1    LIG   0.0000
  64 H           -2.3964     4.4317    -2.0377 H            1    LIG   0.0000
  65 H           -2.5910     4.3460    -0.4186 H            1    LIG   0.0000
  66 H           -1.1085     4.6116    -1.0499 H            1    LIG   0.0000
  67 H           -2.8885     0.9240    -1.4591 H            1    LIG   0.0000
  68 H           -3.6646     2.1217    -0.6655 H            1    LIG   0.0000
@<TRIPOS>BOND
   1        1        2 1
   2        2        3 1
   3        3        4 2
   4        4        5 1
   5        5        6 1
   6        5        7 1
   7        7        8 1
   8        8        9 1
   9        7       10 2
  10       10        3 1
  11       10       11 1
  12       11       12 1
  13       12       13 1
  14       13       14 1
  15       14       15 2
  16       15       16 1
  17       16       17 2
  18       17       18 1
  19       18       14 1
  20       17       19 1
  21       19       20 1
  22       20       21 1
  23       21       22 1
  24       22       23 1
  25       23       16 1
  26       13       24 2
  27       24       25 1
  28       25       26 2
  29       26       12 1
  30       26       27 1
  31       27       28 1
  32       27       29 1
  33       29       30 1
  34       29       31 1
  35       31       32 1
  36       32       33 3
  37       29       34 1
  38        1       35 1
  39        1       36 1
  40        1       37 1
  41        2       38 1
  42        2       39 1
  43        6       40 1
  44        6       41 1
  45        6       42 1
  46        8       43 1
  47        8       44 1
  48        9       45 1
  49        9       46 1
  50        9       47 1
  51       11       48 1
  52       11       49 1
  53       15       50 1
  54       19       51 1
  55       19       52 1
  56       20       53 1
  57       20       54 1
  58       21       55 1
  59       21       56 1
  60       22       57 1
  61       22       58 1
  62       23       59 1
  63       23       60 1
  64       28       61 1
  65       28       62 1
  66       28       63 1
  67       30       64 1
  68       30       65 1
  69       30       66 1
  70       31       67 1
  71       31       68 1

@<TRIPOS>MOLECULE

  68   71
SMALL
USER_CHARGES
@<TRIPOS>ATOM
   1 C1          -2.8661    -4.1715     0.6171 C.3          1    LIG   0.0000
   2 C2          -3.4370    -2.8026     0.9500 C.3          1    LIG   0.0000
   3 C3          -2.4674    -2.0546     1.8497 C.2          1    LIG   0.0000
   4 N4          -2.4537    -2.0855     3.1599 N.2          1    LIG   0.0000
   5 N5          -1.4855    -1.3205     3.6045 N.pl3        1    LIG   0.0000
   6 C6          -1.1589    -1.1045     5.0224 C.3          1    LIG   0.0000
   7 C7          -0.8209    -0.7613     2.5559 C.2          1    LIG   0.0000
   8 C8           0.3668     0.1836     2.6397 C.3          1    LIG   0.0000
   9 C9          -0.1307     1.6185     2.7010 C.3          1    LIG   0.0000
  10 C10         -1.4242    -1.2087     1.4221 C.2          1    LIG   0.0000
  11 C11         -1.0507    -0.8686    -0.0109 C.3          1    LIG   0.0000
  12 N12          0.0969     0.0481    -0.0133 N.pl3        1    LIG   0.0000
  13 C13          1.4071    -0.3124    -0.0293 C.2          1    LIG   0.0000
  14 C14          1.9417    -1.6620    -0.0557 C.2          1    LIG   0.0000
  15 C15          3.2600    -2.0194    -0.0876 C.2          1    LIG   0.0000
  16 C16          3.4507    -3.4313    -0.1480 C.2          1    LIG   0.0000
  17 C17          2.2986    -4.1823    -0.1038 C.2          1    LIG   0.0000
  18 S18          1.0013    -3.0832    -0.0589 S.3          1    LIG   0.0000
  19 C19          2.0560    -5.6824    -0.1008 C.3          1    LIG   0.0000
  20 C20          3.2596    -6.3918     0.5037 C.3          1    LIG   0.0000
  21 C21          4.3731    -6.5698    -0.5199 C.3          1    LIG   0.0000
  22 C22          4.8257    -5.2756    -1.1832 C.3          1    LIG   0.0000
  23 C23          4.8306    -4.0653    -0.2565 C.3          1    LIG   0.0000
  24 N24          2.0962     0.7986    -0.0261 N.2          1    LIG   0.0000
  25 N25          1.2800     1.8369     0.0092 N.2          1    LIG   0.0000
  26 C26          0.0401     1.4086     0.0104 C.2          1    LIG   0.0000
  27 N27         -1.1148     2.1984     0.0321 N.pl3        1    LIG   0.0000
  28 C28         -1.0489     3.6082    -0.3792 C.3          1    LIG   0.0000
  29 C29         -2.3938     1.6185     0.4664 C.3          1    LIG   0.0000
  30 C30         -3.3244     1.4916    -0.7287 C.3          1    LIG   0.0000
  31 C31         -3.0306     2.5207     1.5109 C.3          1    LIG   0.0000
  32 C32         -4.3532     1.9210     1.9599 C.1          1    LIG   0.0000
  33 N33         -5.3451     1.4712     2.2967 N.1          1    LIG   0.0000
  34 H           -2.2327     0.7138     0.8610 H            1    LIG   0.0000
  35 H           -3.5041    -4.6637     0.0250 H            1    LIG   0.0000
  36 H           -1.9908    -4.0620     0.1460 H            1    LIG   0.0000
  37 H           -2.7277    -4.6892     1.4614 H            1    LIG   0.0000
  38 H           -3.5753    -2.2849     0.1057 H            1    LIG   0.0000
  39 H           -4.3122    -2.9121     1.4211 H            1    LIG   0.0000
  40 H           -0.3809    -0.4802     5.0939 H            1    LIG   0.0000
  41 H           -1.9489    -0.7074     5.4897 H            1    LIG   0.0000
  42 H           -0.9249    -1.9788     5.4475 H            1    LIG   0.0000
  43 H            0.9445     0.0652     1.8321 H            1    LIG   0.0000
  44 H            0.8978    -0.0206     3.4622 H            1    LIG   0.0000
  45 H            0.6507     2.2401     2.7561 H            1    LIG   0.0000
  46 H           -0.6617     1.8227     1.8786 H            1    LIG   0.0000
  47 H           -0.7084     1.7368     3.5086 H            1    LIG   0.0000
  48 H           -0.8089    -1.7066    -0.5002 H            1    LIG   0.0000
  49 H           -1.8279    -0.4310    -0.4630 H            1    LIG   0.0000
  50 H            4.0119    -1.3604    -0.0704 H            1    LIG   0.0000
  51 H            1.9193    -5.9995    -1.0393 H            1    LIG   0.0000
  52 H            1.2416    -5.8870     0.4421 H            1    LIG   0.0000
  53 H            2.9746    -7.2916     0.8339 H            1    LIG   0.0000
  54 H            3.6056    -5.8498     1.2695 H            1    LIG   0.0000
  55 H            4.0469    -7.1902    -1.2332 H            1    LIG   0.0000
  56 H            5.1609    -6.9776    -0.0582 H            1    LIG   0.0000
  57 H            5.7543    -5.4089    -1.5294 H            1    LIG   0.0000
  58 H            4.2097    -5.0828    -1.9470 H            1    LIG   0.0000
  59 H            5.1260    -4.3557     0.6537 H            1    LIG   0.0000
  60 H            5.4717    -3.3863    -0.6141 H            1    LIG   0.0000
  61 H           -1.9569     4.0203    -0.3032 H            1    LIG   0.0000
  62 H           -0.4096     4.0987     0.2129 H            1    LIG   0.0000
  63 H           -0.7356     3.6645    -1.3272 H            1    LIG   0.0000
  64 H           -4.1945     1.0971    -0.4333 H            1    LIG   0.0000
  65 H           -3.4855     2.3963    -1.1233 H            1    LIG   0.0000
  66 H           -2.9055     0.8981    -1.4159 H            1    LIG   0.0000
  67 H           -2.4184     2.6041     2.2971 H            1    LIG   0.0000
  68 H           -3.1917     3.4253     1.1163 H            1    LIG   0.0000
@<TRIPOS>BOND
   1        1        2 1
   2        2        3 1
   3        3        4 2
   4        4        5 1
   5        5        6 1
   6        5        7 1
   7        7        8 1
   8        8        9 1
   9        7       10 2
  10       10        3 1
  11       10       11 1
  12       11       12 1
  13       12       13 1
  14       13       14 1
  15       14       15 2
  16       15       16 1
  17       16       17 2
  18       17       18 1
  19       18       14 1
  20       17       19 1
  21       19       20 1
  22       20       21 1
  23       21       22 1
  24       22       23 1
  25       23       16 1
  26       13       24 2
  27       24       25 1
  28       25       26 2
  29       26       12 1
  30       26       27 1
  31       27       28 1
  32       27       29 1
  33       29       30 1
  34       29       31 1
  35       31       32 1
  36       32       33 3
  37       29       34 1
  38        1       35 1
  39        1       36 1
  40        1       37 1
  41        2       38 1
  42        2       39 1
  43        6       40 1
  44        6       41 1
  45        6       42 1
  46        8       43 1
  47        8       44 1
  48        9       45 1
  49        9       46 1
  50        9       47 1
  51       11       48 1
  52       11       49 1
  53       15       50 1
  54       19       51 1
  55       19       52 1
  56       20       53 1
  57       20       54 1
  58       21       55 1
  59       21       56 1
  60       22       57 1
  61       22       58 1
  62       23       59 1
  63       23       60 1
  64       28       61 1
  65       28       62 1
  66       28       63 1
  67       30       64 1
  68       30       65 1
  69       30       66 1
  70       31       67 1
  71       31       68 1

@<TRIPOS>MOLECULE

  68   71
SMALL
USER_CHARGES
@<TRIPOS>ATOM
   1 C1          -2.8661    -4.1715     0.6171 C.3          1    LIG   0.0000
   2 C2          -3.4370    -2.8026     0.9500 C.3          1    LIG   0.0000
   3 C3          -2.4674    -2.0546     1.8497 C.2          1    LIG   0.0000
   4 N4          -2.4537    -2.0855     3.1599 N.2          1    LIG   0.0000
   5 N5          -1.4855    -1.3205     3.6045 N.pl3        1    LIG   0.0000
   6 C6          -1.1589    -1.1045     5.0224 C.3          1    LIG   0.0000
   7 C7          -0.8209    -0.7613     2.5559 C.2          1    LIG   0.0000
   8 C8           0.3668     0.1836     2.6397 C.3          1    LIG   0.0000
   9 C9          -0.1307     1.6185     2.7010 C.3          1    LIG   0.0000
  10 C10         -1.4242    -1.2087     1.4221 C.2          1    LIG   0.0000
  11 C11         -1.0507    -0.8686    -0.0109 C.3          1    LIG   0.0000
  12 N12          0.0969     0.0481    -0.0133 N.pl3        1    LIG   0.0000
  13 C13          1.4071    -0.3124    -0.0293 C.2          1    LIG   0.0000
  14 C14          1.9417    -1.6620    -0.0557 C.2          1    LIG   0.0000
  15 C15          3.2600    -2.0194    -0.0876 C.2          1    LIG   0.0000
  16 C16          3.4507    -3.4313    -0.1480 C.2          1    LIG   0.0000
  17 C17          2.2986    -4.1823    -0.1038 C.2          1    LIG   0.0000
  18 S18          1.0013    -3.0832    -0.0589 S.3          1    LIG   0.0000
  19 C19          2.0560    -5.6824    -0.1008 C.3          1    LIG   0.0000
  20 C20          3.2596    -6.3918     0.5037 C.3          1    LIG   0.0000
  21 C21          4.3731    -6.5698    -0.5199 C.3          1    LIG   0.0000
  22 C22          4.8257    -5.2756    -1.1832 C.3          1    LIG   0.0000
  23 C23          4.8306    -4.0653    -0.2565 C.3          1    LIG   0.0000
  24 N24          2.0962     0.7986    -0.0261 N.2          1    LIG   0.0000
  25 N25          1.2800     1.8369     0.0092 N.2          1    LIG   0.0000
  26 C26          0.0401     1.4086     0.0104 C.2          1    LIG   0.0000
  27 N27         -1.1148     2.1984     0.0321 N.pl3        1    LIG   0.0000
  28 C28         -2.4402     1.5627     0.0303 C.3          1    LIG   0.0000
  29 C29         -1.0026     3.6639     0.0569 C.3          1    LIG   0.0000
  30 C30         -1.8747     4.2201     1.1706 C.3          1    LIG   0.0000
  31 C31         -1.4620     4.2299    -1.2769 C.3          1    LIG   0.0000
  32 C32         -1.3459     5.7452    -1.2513 C.1          1    LIG   0.0000
  33 N33         -1.2589     6.8817    -1.2321 N.1          1    LIG   0.0000
  34 H           -0.0502     3.9227     0.2185 H            1    LIG   0.0000
  35 H           -3.5041    -4.6637     0.0250 H            1    LIG   0.0000
  36 H           -1.9908    -4.0620     0.1460 H            1    LIG   0.0000
  37 H           -2.7277    -4.6892     1.4614 H            1    LIG   0.0000
  38 H           -3.5753    -2.2849     0.1057 H            1    LIG   0.0000
  39 H           -4.3122    -2.9121     1.4211 H            1    LIG   0.0000
  40 H           -0.3809    -0.4802     5.0939 H            1    LIG   0.0000
  41 H           -1.9489    -0.7074     5.4897 H            1    LIG   0.0000
  42 H           -0.9249    -1.9788     5.4475 H            1    LIG   0.0000
  43 H            0.9445     0.0652     1.8321 H            1    LIG   0.0000
  44 H            0.8978    -0.0206     3.4622 H            1    LIG   0.0000
  45 H            0.6507     2.2401     2.7561 H            1    LIG   0.0000
  46 H           -0.6617     1.8227     1.8786 H            1    LIG   0.0000
  47 H           -0.7084     1.7368     3.5086 H            1    LIG   0.0000
  48 H           -0.8089    -1.7066    -0.5002 H            1    LIG   0.0000
  49 H           -1.8279    -0.4310    -0.4630 H            1    LIG   0.0000
  50 H            4.0119    -1.3604    -0.0704 H            1    LIG   0.0000
  51 H            1.9193    -5.9995    -1.0393 H            1    LIG   0.0000
  52 H            1.2416    -5.8870     0.4421 H            1    LIG   0.0000
  53 H            2.9746    -7.2916     0.8339 H            1    LIG   0.0000
  54 H            3.6056    -5.8498     1.2695 H            1    LIG   0.0000
  55 H            4.0469    -7.1902    -1.2332 H            1    LIG   0.0000
  56 H            5.1609    -6.9776    -0.0582 H            1    LIG   0.0000
  57 H            5.7543    -5.4089    -1.5294 H            1    LIG   0.0000
  58 H            4.2097    -5.0828    -1.9470 H            1    LIG   0.0000
  59 H            5.1260    -4.3557     0.6537 H            1    LIG   0.0000
  60 H            5.4717    -3.3863    -0.6141 H            1    LIG   0.0000
  61 H           -3.1484     2.2685     0.0475 H            1    LIG   0.0000
  62 H           -2.5426     1.0078    -0.7953 H            1    LIG   0.0000
  63 H           -2.5312     0.9794     0.8374 H            1    LIG   0.0000
  64 H           -1.7984     5.2171     1.1875 H            1    LIG   0.0000
  65 H           -2.8271     3.9614     1.0090 H            1    LIG   0.0000
  66 H           -1.5725     3.8478     2.0482 H            1    LIG   0.0000
  67 H           -0.8882     3.8640    -2.0097 H            1    LIG   0.0000
  68 H           -2.4143     3.9712    -1.4386 H            1    LIG   0.0000
@<TRIPOS>BOND
   1        1        2 1
   2        2        3 1
   3        3        4 2
   4        4        5 1
   5        5        6 1
   6        5        7 1
   7        7        8 1
   8        8        9 1
   9        7       10 2
  10       10        3 1
  11       10       11 1
  12       11       12 1
  13       12       13 1
  14       13       14 1
  15       14       15 2
  16       15       16 1
  17       16       17 2
  18       17       18 1
  19       18       14 1
  20       17       19 1
  21       19       20 1
  22       20       21 1
  23       21       22 1
  24       22       23 1
  25       23       16 1
  26       13       24 2
  27       24       25 1
  28       25       26 2
  29       26       12 1
  30       26       27 1
  31       27       28 1
  32       27       29 1
  33       29       30 1
  34       29       31 1
  35       31       32 1
  36       32       33 3
  37       29       34 1
  38        1       35 1
  39        1       36 1
  40        1       37 1
  41        2       38 1
  42        2       39 1
  43        6       40 1
  44        6       41 1
  45        6       42 1
  46        8       43 1
  47        8       44 1
  48        9       45 1
  49        9       46 1
  50        9       47 1
  51       11       48 1
  52       11       49 1
  53       15       50 1
  54       19       51 1
  55       19       52 1
  56       20       53 1
  57       20       54 1
  58       21       55 1
  59       21       56 1
  60       22       57 1
  61       22       58 1
  62       23       59 1
  63       23       60 1
  64       28       61 1
  65       28       62 1
  66       28       63 1
  67       30       64 1
  68       30       65 1
  69       30       66 1
  70       31       67 1
  71       31       68 1

@<TRIPOS>MOLECULE

  68   71
SMALL
USER_CHARGES
@<TRIPOS>ATOM
   1 C1          -2.8661    -4.1715     0.6171 C.3          1    LIG   0.0000
   2 C2          -3.4370    -2.8026     0.9500 C.3          1    LIG   0.0000
   3 C3          -2.4674    -2.0546     1.8497 C.2          1    LIG   0.0000
   4 N4          -2.4537    -2.0855     3.1599 N.2          1    LIG   0.0000
   5 N5          -1.4855    -1.3205     3.6045 N.pl3        1    LIG   0.0000
   6 C6          -1.1589    -1.1045     5.0224 C.3          1    LIG   0.0000
   7 C7          -0.8209    -0.7613     2.5559 C.2          1    LIG   0.0000
   8 C8           0.3668     0.1836     2.6397 C.3          1    LIG   0.0000
   9 C9          -0.0315     1.4308     3.4118 C.3          1    LIG   0.0000
  10 C10         -1.4242    -1.2087     1.4221 C.2          1    LIG   0.0000
  11 C11         -1.0507    -0.8686    -0.0109 C.3          1    LIG   0.0000
  12 N12          0.0969     0.0481    -0.0133 N.pl3        1    LIG   0.0000
  13 C13          1.4071    -0.3124    -0.0293 C.2          1    LIG   0.0000
  14 C14          1.9417    -1.6620    -0.0557 C.2          1    LIG   0.0000
  15 C15          2.0891    -2.5047     1.0096 C.2          1    LIG   0.0000
  16 C16          2.6839    -3.7507     0.6532 C.2          1    LIG   0.0000
  17 C17          2.9481    -3.9136    -0.6874 C.2          1    LIG   0.0000
  18 S18          2.5037    -2.4608    -1.4522 S.3          1    LIG   0.0000
  19 C19          3.5246    -5.0737    -1.4817 C.3          1    LIG   0.0000
  20 C20          3.2211    -6.3821    -0.7654 C.3          1    LIG   0.0000
  21 C21          4.2183    -6.6482     0.3544 C.3          1    LIG   0.0000
  22 C22          4.3275    -5.5230     1.3751 C.3          1    LIG   0.0000
  23 C23          3.0073    -4.8254     1.6819 C.3          1    LIG   0.0000
  24 N24          2.0962     0.7986    -0.0261 N.2          1    LIG   0.0000
  25 N25          1.2800     1.8369     0.0092 N.2          1    LIG   0.0000
  26 C26          0.0401     1.4086     0.0104 C.2          1    LIG   0.0000
  27 N27         -1.1148     2.1984     0.0321 N.pl3        1    LIG   0.0000
  28 C28         -1.7125     2.5911     1.3164 C.3          1    LIG   0.0000
  29 C29         -1.7302     2.6355    -1.2292 C.3          1    LIG   0.0000
  30 C30         -1.0791     1.9032    -2.3912 C.3          1    LIG   0.0000
  31 C31         -1.5306     4.1328    -1.3983 C.3          1    LIG   0.0000
  32 C32         -2.1670     4.5847    -2.7026 C.1          1    LIG   0.0000
  33 N33         -2.6443     4.9237    -3.6808 N.1          1    LIG   0.0000
  34 H           -2.7086     2.4295    -1.2117 H            1    LIG   0.0000
  35 H           -3.5041    -4.6637     0.0250 H            1    LIG   0.0000
  36 H           -1.9908    -4.0620     0.1460 H            1    LIG   0.0000
  37 H           -2.7277    -4.6892     1.4614 H            1    LIG   0.0000
  38 H           -3.5753    -2.2849     0.1057 H            1    LIG   0.0000
  39 H           -4.3122    -2.9121     1.4211 H            1    LIG   0.0000
  40 H           -0.3809    -0.4802     5.0939 H            1    LIG   0.0000
  41 H           -1.9489    -0.7074     5.4897 H            1    LIG   0.0000
  42 H           -0.9249    -1.9788     5.4475 H            1    LIG   0.0000
  43 H            0.6542     0.4403     1.7170 H            1    LIG   0.0000
  44 H            1.1228    -0.2721     3.1096 H            1    LIG   0.0000
  45 H            0.7499     2.0524     3.4669 H            1    LIG   0.0000
  46 H           -0.7875     1.8865     2.9418 H            1    LIG   0.0000
  47 H           -0.3189     1.1741     4.3345 H            1    LIG   0.0000
  48 H           -0.8089    -1.7066    -0.5002 H            1    LIG   0.0000
  49 H           -1.8279    -0.4310    -0.4630 H            1    LIG   0.0000
  50 H            1.8094    -2.2721     1.9411 H            1    LIG   0.0000
  51 H            4.5148    -4.9613    -1.5645 H            1    LIG   0.0000
  52 H            3.1136    -5.0900    -2.3932 H            1    LIG   0.0000
  53 H            3.2656    -7.1321    -1.4254 H            1    LIG   0.0000
  54 H            2.3010    -6.3343    -0.3768 H            1    LIG   0.0000
  55 H            5.1197    -6.7883    -0.0553 H            1    LIG   0.0000
  56 H            3.9371    -7.4797     0.8335 H            1    LIG   0.0000
  57 H            4.6848    -5.9061     2.2269 H            1    LIG   0.0000
  58 H            4.9678    -4.8407     1.0221 H            1    LIG   0.0000
  59 H            2.2741    -5.5054     1.6812 H            1    LIG   0.0000
  60 H            3.0676    -4.4011     2.5854 H            1    LIG   0.0000
  61 H           -2.5252     3.1493     1.1490 H            1    LIG   0.0000
  62 H           -1.9705     1.7718     1.8284 H            1    LIG   0.0000
  63 H           -1.0485     3.1195     1.8455 H            1    LIG   0.0000
  64 H           -1.4977     2.2005    -3.2493 H            1    LIG   0.0000
  65 H           -0.1007     2.1091    -2.4087 H            1    LIG   0.0000
  66 H           -1.2104     0.9181    -2.2800 H            1    LIG   0.0000
  67 H           -1.9590     4.6146    -0.6339 H            1    LIG   0.0000
  68 H           -0.5522     4.3388    -1.4158 H            1    LIG   0.0000
@<TRIPOS>BOND
   1        1        2 1
   2        2        3 1
   3        3        4 2
   4        4        5 1
   5        5        6 1
   6        5        7 1
   7        7        8 1
   8        8        9 1
   9        7       10 2
  10       10        3 1
  11       10       11 1
  12       11       12 1
  13       12       13 1
  14       13       14 1
  15       14       15 2
  16       15       16 1
  17       16       17 2
  18       17       18 1
  19       18       14 1
  20       17       19 1
  21       19       20 1
  22       20       21 1
  23       21       22 1
  24       22       23 1
  25       23       16 1
  26       13       24 2
  27       24       25 1
  28       25       26 2
  29       26       12 1
  30       26       27 1
  31       27       28 1
  32       27       29 1
  33       29       30 1
  34       29       31 1
  35       31       32 1
  36       32       33 3
  37       29       34 1
  38        1       35 1
  39        1       36 1
  40        1       37 1
  41        2       38 1
  42        2       39 1
  43        6       40 1
  44        6       41 1
  45        6       42 1
  46        8       43 1
  47        8       44 1
  48        9       45 1
  49        9       46 1
  50        9       47 1
  51       11       48 1
  52       11       49 1
  53       15       50 1
  54       19       51 1
  55       19       52 1
  56       20       53 1
  57       20       54 1
  58       21       55 1
  59       21       56 1
  60       22       57 1
  61       22       58 1
  62       23       59 1
  63       23       60 1
  64       28       61 1
  65       28       62 1
  66       28       63 1
  67       30       64 1
  68       30       65 1
  69       30       66 1
  70       31       67 1
  71       31       68 1

@<TRIPOS>MOLECULE

  68   71
SMALL
USER_CHARGES
@<TRIPOS>ATOM
   1 C1          -2.8661    -4.1715     0.6171 C.3          1    LIG   0.0000
   2 C2          -3.4370    -2.8026     0.9500 C.3          1    LIG   0.0000
   3 C3          -2.4674    -2.0546     1.8497 C.2          1    LIG   0.0000
   4 N4          -2.4537    -2.0855     3.1599 N.2          1    LIG   0.0000
   5 N5          -1.4855    -1.3205     3.6045 N.pl3        1    LIG   0.0000
   6 C6          -1.1589    -1.1045     5.0224 C.3          1    LIG   0.0000
   7 C7          -0.8209    -0.7613     2.5559 C.2          1    LIG   0.0000
   8 C8           0.3668     0.1836     2.6397 C.3          1    LIG   0.0000
   9 C9           0.0520     1.3081     3.6127 C.3          1    LIG   0.0000
  10 C10         -1.4242    -1.2087     1.4221 C.2          1    LIG   0.0000
  11 C11         -1.0507    -0.8686    -0.0109 C.3          1    LIG   0.0000
  12 N12          0.0969     0.0481    -0.0133 N.pl3        1    LIG   0.0000
  13 C13          1.4071    -0.3124    -0.0293 C.2          1    LIG   0.0000
  14 C14          1.9410    -1.6603    -0.0557 C.2          1    LIG   0.0000
  15 C15          1.2944    -2.8013    -0.4240 C.2          1    LIG   0.0000
  16 C16          2.0480    -4.0036    -0.3525 C.2          1    LIG   0.0000
  17 C17          3.3301    -3.8127     0.0687 C.2          1    LIG   0.0000
  18 S18          3.5133    -2.1395     0.3784 S.3          1    LIG   0.0000
  19 C19          4.4071    -4.8733     0.2383 C.3          1    LIG   0.0000
  20 C20          4.1617    -5.7056     1.4895 C.3          1    LIG   0.0000
  21 C21          2.7562    -6.2920     1.4289 C.3          1    LIG   0.0000
  22 C22          2.2566    -6.5836     0.0170 C.3          1    LIG   0.0000
  23 C23          1.5642    -5.4178    -0.6855 C.3          1    LIG   0.0000
  24 N24          2.0962     0.7986    -0.0261 N.2          1    LIG   0.0000
  25 N25          1.2800     1.8369     0.0092 N.2          1    LIG   0.0000
  26 C26          0.0401     1.4086     0.0104 C.2          1    LIG   0.0000
  27 N27         -1.1148     2.1984     0.0321 N.pl3        1    LIG   0.0000
  28 C28         -1.7302     2.6355    -1.2292 C.3          1    LIG   0.0000
  29 C29         -1.7125     2.5911     1.3164 C.3          1    LIG   0.0000
  30 C30         -3.1625     2.9920     1.0989 C.3          1    LIG   0.0000
  31 C31         -0.9430     3.7674     1.8949 C.3          1    LIG   0.0000
  32 C32         -1.5611     4.1735     3.2228 C.1          1    LIG   0.0000
  33 N33         -2.0246     4.4780     4.2188 N.1          1    LIG   0.0000
  34 H           -1.6715     1.8207     1.9526 H            1    LIG   0.0000
  35 H           -3.5041    -4.6637     0.0250 H            1    LIG   0.0000
  36 H           -1.9908    -4.0620     0.1460 H            1    LIG   0.0000
  37 H           -2.7277    -4.6892     1.4614 H            1    LIG   0.0000
  38 H           -3.5753    -2.2849     0.1057 H            1    LIG   0.0000
  39 H           -4.3122    -2.9121     1.4211 H            1    LIG   0.0000
  40 H           -0.3809    -0.4802     5.0939 H            1    LIG   0.0000
  41 H           -1.9489    -0.7074     5.4897 H            1    LIG   0.0000
  42 H           -0.9249    -1.9788     5.4475 H            1    LIG   0.0000
  43 H            0.5518     0.5675     1.7351 H            1    LIG   0.0000
  44 H            1.1703    -0.3186     2.9594 H            1    LIG   0.0000
  45 H            0.8333     1.9297     3.6678 H            1    LIG   0.0000
  46 H           -0.7516     1.8102     3.2931 H            1    LIG   0.0000
  47 H           -0.1330     0.9241     4.5173 H            1    LIG   0.0000
  48 H           -0.8089    -1.7066    -0.5002 H            1    LIG   0.0000
  49 H           -1.8279    -0.4310    -0.4630 H            1    LIG   0.0000
  50 H            0.3417    -2.7931    -0.7279 H            1    LIG   0.0000
  51 H            5.2981    -4.4255     0.3131 H            1    LIG   0.0000
  52 H            4.4023    -5.4747    -0.5606 H            1    LIG   0.0000
  53 H            4.2483    -5.1261     2.2998 H            1    LIG   0.0000
  54 H            4.8320    -6.4462     1.5361 H            1    LIG   0.0000
  55 H            2.1273    -5.6420     1.8554 H            1    LIG   0.0000
  56 H            2.7518    -7.1482     1.9455 H            1    LIG   0.0000
  57 H            3.0424    -6.8560    -0.5384 H            1    LIG   0.0000
  58 H            1.6069    -7.3420     0.0699 H            1    LIG   0.0000
  59 H            1.6801    -5.5499    -1.6700 H            1    LIG   0.0000
  60 H            0.5922    -5.4639    -0.4551 H            1    LIG   0.0000
  61 H           -2.5404     3.1873    -1.0312 H            1    LIG   0.0000
  62 H           -1.0735     3.1821    -1.7488 H            1    LIG   0.0000
  63 H           -1.9955     1.8344    -1.7658 H            1    LIG   0.0000
  64 H           -3.5691     3.2592     1.9726 H            1    LIG   0.0000
  65 H           -3.2035     3.7625     0.4627 H            1    LIG   0.0000
  66 H           -3.6688     2.2182     0.7183 H            1    LIG   0.0000
  67 H            0.0109     3.5037     2.0380 H            1    LIG   0.0000
  68 H           -0.9840     4.5378     1.2587 H            1    LIG   0.0000
@<TRIPOS>BOND
   1        1        2 1
   2        2        3 1
   3        3        4 2
   4        4        5 1
   5        5        6 1
   6        5        7 1
   7        7        8 1
   8        8        9 1
   9        7       10 2
  10       10        3 1
  11       10       11 1
  12       11       12 1
  13       12       13 1
  14       13       14 1
  15       14       15 2
  16       15       16 1
  17       16       17 2
  18       17       18 1
  19       18       14 1
  20       17       19 1
  21       19       20 1
  22       20       21 1
  23       21       22 1
  24       22       23 1
  25       23       16 1
  26       13       24 2
  27       24       25 1
  28       25       26 2
  29       26       12 1
  30       26       27 1
  31       27       28 1
  32       27       29 1
  33       29       30 1
  34       29       31 1
  35       31       32 1
  36       32       33 3
  37       29       34 1
  38        1       35 1
  39        1       36 1
  40        1       37 1
  41        2       38 1
  42        2       39 1
  43        6       40 1
  44        6       41 1
  45        6       42 1
  46        8       43 1
  47        8       44 1
  48        9       45 1
  49        9       46 1
  50        9       47 1
  51       11       48 1
  52       11       49 1
  53       15       50 1
  54       19       51 1
  55       19       52 1
  56       20       53 1
  57       20       54 1
  58       21       55 1
  59       21       56 1
  60       22       57 1
  61       22       58 1
  62       23       59 1
  63       23       60 1
  64       28       61 1
  65       28       62 1
  66       28       63 1
  67       30       64 1
  68       30       65 1
  69       30       66 1
  70       31       67 1
  71       31       68 1

@<TRIPOS>MOLECULE

  68   71
SMALL
USER_CHARGES
@<TRIPOS>ATOM
   1 C1          -2.8661    -4.1715     0.6171 C.3          1    LIG   0.0000
   2 C2          -3.4370    -2.8026     0.9500 C.3          1    LIG   0.0000
   3 C3          -2.4674    -2.0546     1.8497 C.2          1    LIG   0.0000
   4 N4          -2.4537    -2.0855     3.1599 N.2          1    LIG   0.0000
   5 N5          -1.4855    -1.3205     3.6045 N.pl3        1    LIG   0.0000
   6 C6          -1.1589    -1.1045     5.0224 C.3          1    LIG   0.0000
   7 C7          -0.8209    -0.7613     2.5559 C.2          1    LIG   0.0000
   8 C8           0.3668     0.1836     2.6397 C.3          1    LIG   0.0000
   9 C9           0.0520     1.3081     3.6127 C.3          1    LIG   0.0000
  10 C10         -1.4242    -1.2087     1.4221 C.2          1    LIG   0.0000
  11 C11         -1.0507    -0.8686    -0.0109 C.3          1    LIG   0.0000
  12 N12          0.0969     0.0481    -0.0133 N.pl3        1    LIG   0.0000
  13 C13          1.4071    -0.3124    -0.0293 C.2          1    LIG   0.0000
  14 C14          1.9417    -1.6620    -0.0557 C.2          1    LIG   0.0000
  15 C15          1.2793    -2.7972    -0.4288 C.2          1    LIG   0.0000
  16 C16          2.0780    -3.9720    -0.3037 C.2          1    LIG   0.0000
  17 C17          3.3743    -3.7603     0.1060 C.2          1    LIG   0.0000
  18 S18          3.5295    -2.0906     0.3908 S.3          1    LIG   0.0000
  19 C19          4.5446    -4.7051     0.3231 C.3          1    LIG   0.0000
  20 C20          4.3898    -5.9230    -0.5767 C.3          1    LIG   0.0000
  21 C21          3.4434    -6.9489     0.0325 C.3          1    LIG   0.0000
  22 C22          2.0676    -6.3987     0.3851 C.3          1    LIG   0.0000
  23 C23          1.5359    -5.3636    -0.5995 C.3          1    LIG   0.0000
  24 N24          2.0962     0.7986    -0.0261 N.2          1    LIG   0.0000
  25 N25          1.2800     1.8369     0.0092 N.2          1    LIG   0.0000
  26 C26          0.0401     1.4086     0.0104 C.2          1    LIG   0.0000
  27 N27         -1.1148     2.1984     0.0321 N.pl3        1    LIG   0.0000
  28 C28         -1.7125     2.5911     1.3164 C.3          1    LIG   0.0000
  29 C29         -1.7302     2.6355    -1.2292 C.3          1    LIG   0.0000
  30 C30         -1.9777     4.1344    -1.1796 C.3          1    LIG   0.0000
  31 C31         -3.0513     1.9101    -1.4265 C.3          1    LIG   0.0000
  32 C32         -3.6877     2.3620    -2.7307 C.1          1    LIG   0.0000
  33 N33         -4.1650     2.7010    -3.7090 N.1          1    LIG   0.0000
  34 H           -1.1169     2.4239    -1.9902 H            1    LIG   0.0000
  35 H           -3.5041    -4.6637     0.0250 H            1    LIG   0.0000
  36 H           -1.9908    -4.0620     0.1460 H            1    LIG   0.0000
  37 H           -2.7277    -4.6892     1.4614 H            1    LIG   0.0000
  38 H           -3.5753    -2.2849     0.1057 H            1    LIG   0.0000
  39 H           -4.3122    -2.9121     1.4211 H            1    LIG   0.0000
  40 H           -0.3809    -0.4802     5.0939 H            1    LIG   0.0000
  41 H           -1.9489    -0.7074     5.4897 H            1    LIG   0.0000
  42 H           -0.9249    -1.9788     5.4475 H            1    LIG   0.0000
  43 H            0.5518     0.5675     1.7351 H            1    LIG   0.0000
  44 H            1.1703    -0.3186     2.9594 H            1    LIG   0.0000
  45 H            0.8333     1.9297     3.6678 H            1    LIG   0.0000
  46 H           -0.7516     1.8102     3.2931 H            1    LIG   0.0000
  47 H           -0.1330     0.9241     4.5173 H            1    LIG   0.0000
  48 H           -0.8089    -1.7066    -0.5002 H            1    LIG   0.0000
  49 H           -1.8279    -0.4310    -0.4630 H            1    LIG   0.0000
  50 H            0.3341    -2.8037    -0.7551 H            1    LIG   0.0000
  51 H            4.5635    -4.9976     1.2792 H            1    LIG   0.0000
  52 H            5.3985    -4.2339     0.1018 H            1    LIG   0.0000
  53 H            5.2863    -6.3458    -0.7088 H            1    LIG   0.0000
  54 H            4.0260    -5.6298    -1.4609 H            1    LIG   0.0000
  55 H            3.8624    -7.3044     0.8680 H            1    LIG   0.0000
  56 H            3.3242    -7.6939    -0.6238 H            1    LIG   0.0000
  57 H            1.4229    -7.1626     0.4153 H            1    LIG   0.0000
  58 H            2.1224    -5.9729     1.2883 H            1    LIG   0.0000
  59 H            1.8081    -5.6272    -1.5249 H            1    LIG   0.0000
  60 H            0.5379    -5.3419    -0.5390 H            1    LIG   0.0000
  61 H           -2.5252     3.1493     1.1490 H            1    LIG   0.0000
  62 H           -1.9705     1.7718     1.8284 H            1    LIG   0.0000
  63 H           -1.0485     3.1195     1.8455 H            1    LIG   0.0000
  64 H           -2.3964     4.4317    -2.0377 H            1    LIG   0.0000
  65 H           -2.5910     4.3460    -0.4186 H            1    LIG   0.0000
  66 H           -1.1085     4.6116    -1.0499 H            1    LIG   0.0000
  67 H           -2.8885     0.9240    -1.4591 H            1    LIG   0.0000
  68 H           -3.6646     2.1217    -0.6655 H            1    LIG   0.0000
@<TRIPOS>BOND
   1        1        2 1
   2        2        3 1
   3        3        4 2
   4        4        5 1
   5        5        6 1
   6        5        7 1
   7        7        8 1
   8        8        9 1
   9        7       10 2
  10       10        3 1
  11       10       11 1
  12       11       12 1
  13       12       13 1
  14       13       14 1
  15       14       15 2
  16       15       16 1
  17       16       17 2
  18       17       18 1
  19       18       14 1
  20       17       19 1
  21       19       20 1
  22       20       21 1
  23       21       22 1
  24       22       23 1
  25       23       16 1
  26       13       24 2
  27       24       25 1
  28       25       26 2
  29       26       12 1
  30       26       27 1
  31       27       28 1
  32       27       29 1
  33       29       30 1
  34       29       31 1
  35       31       32 1
  36       32       33 3
  37       29       34 1
  38        1       35 1
  39        1       36 1
  40        1       37 1
  41        2       38 1
  42        2       39 1
  43        6       40 1
  44        6       41 1
  45        6       42 1
  46        8       43 1
  47        8       44 1
  48        9       45 1
  49        9       46 1
  50        9       47 1
  51       11       48 1
  52       11       49 1
  53       15       50 1
  54       19       51 1
  55       19       52 1
  56       20       53 1
  57       20       54 1
  58       21       55 1
  59       21       56 1
  60       22       57 1
  61       22       58 1
  62       23       59 1
  63       23       60 1
  64       28       61 1
  65       28       62 1
  66       28       63 1
  67       30       64 1
  68       30       65 1
  69       30       66 1
  70       31       67 1
  71       31       68 1

@<TRIPOS>MOLECULE

  68   71
SMALL
USER_CHARGES
@<TRIPOS>ATOM
   1 C1          -2.8661    -4.1715     0.6171 C.3          1    LIG   0.0000
   2 C2          -3.4370    -2.8026     0.9500 C.3          1    LIG   0.0000
   3 C3          -2.4674    -2.0546     1.8497 C.2          1    LIG   0.0000
   4 N4          -2.4537    -2.0855     3.1599 N.2          1    LIG   0.0000
   5 N5          -1.4855    -1.3205     3.6045 N.pl3        1    LIG   0.0000
   6 C6          -1.1589    -1.1045     5.0224 C.3          1    LIG   0.0000
   7 C7          -0.8209    -0.7613     2.5559 C.2          1    LIG   0.0000
   8 C8           0.3668     0.1836     2.6397 C.3          1    LIG   0.0000
   9 C9           0.0520     1.3081     3.6127 C.3          1    LIG   0.0000
  10 C10         -1.4242    -1.2087     1.4221 C.2          1    LIG   0.0000
  11 C11         -1.0507    -0.8686    -0.0109 C.3          1    LIG   0.0000
  12 N12          0.0969     0.0481    -0.0133 N.pl3        1    LIG   0.0000
  13 C13          1.4071    -0.3124    -0.0293 C.2          1    LIG   0.0000
  14 C14          1.9410    -1.6603    -0.0557 C.2          1    LIG   0.0000
  15 C15          3.2509    -2.0329    -0.0881 C.2          1    LIG   0.0000
  16 C16          3.5079    -3.4300    -0.1163 C.2          1    LIG   0.0000
  17 C17          2.3753    -4.1877    -0.0906 C.2          1    LIG   0.0000
  18 S18          1.0485    -3.1072    -0.0600 S.3          1    LIG   0.0000
  19 C19          2.2879    -5.7062    -0.0898 C.3          1    LIG   0.0000
  20 C20          2.5873    -6.2712    -1.4717 C.3          1    LIG   0.0000
  21 C21          3.9441    -5.7556    -1.9364 C.3          1    LIG   0.0000
  22 C22          4.9412    -5.5042    -0.8092 C.3          1    LIG   0.0000
  23 C23          4.8755    -4.1162    -0.1756 C.3          1    LIG   0.0000
  24 N24          2.0962     0.7986    -0.0261 N.2          1    LIG   0.0000
  25 N25          1.2800     1.8369     0.0092 N.2          1    LIG   0.0000
  26 C26          0.0401     1.4086     0.0104 C.2          1    LIG   0.0000
  27 N27         -1.1148     2.1984     0.0321 N.pl3        1    LIG   0.0000
  28 C28         -1.7125     2.5911     1.3164 C.3          1    LIG   0.0000
  29 C29         -1.7302     2.6355    -1.2292 C.3          1    LIG   0.0000
  30 C30         -1.9777     4.1344    -1.1796 C.3          1    LIG   0.0000
  31 C31         -3.0513     1.9101    -1.4265 C.3          1    LIG   0.0000
  32 C32         -3.4430     1.9607    -2.8943 C.1          1    LIG   0.0000
  33 N33         -3.7367     1.9987    -3.9951 N.1          1    LIG   0.0000
  34 H           -1.1169     2.4239    -1.9902 H            1    LIG   0.0000
  35 H           -3.5041    -4.6637     0.0250 H            1    LIG   0.0000
  36 H           -1.9908    -4.0620     0.1460 H            1    LIG   0.0000
  37 H           -2.7277    -4.6892     1.4614 H            1    LIG   0.0000
  38 H           -3.5753    -2.2849     0.1057 H            1    LIG   0.0000
  39 H           -4.3122    -2.9121     1.4211 H            1    LIG   0.0000
  40 H           -0.3809    -0.4802     5.0939 H            1    LIG   0.0000
  41 H           -1.9489    -0.7074     5.4897 H            1    LIG   0.0000
  42 H           -0.9249    -1.9788     5.4475 H            1    LIG   0.0000
  43 H            0.5518     0.5675     1.7351 H            1    LIG   0.0000
  44 H            1.1703    -0.3186     2.9594 H            1    LIG   0.0000
  45 H            0.8333     1.9297     3.6678 H            1    LIG   0.0000
  46 H           -0.7516     1.8102     3.2931 H            1    LIG   0.0000
  47 H           -0.1330     0.9241     4.5173 H            1    LIG   0.0000
  48 H           -0.8089    -1.7066    -0.5002 H            1    LIG   0.0000
  49 H           -1.8279    -0.4310    -0.4630 H            1    LIG   0.0000
  50 H            3.9908    -1.3602    -0.0919 H            1    LIG   0.0000
  51 H            1.3656    -5.9805     0.1828 H            1    LIG   0.0000
  52 H            2.9510    -6.0716     0.5635 H            1    LIG   0.0000
  53 H            1.8793    -5.9780    -2.1142 H            1    LIG   0.0000
  54 H            2.6052    -7.2701    -1.4286 H            1    LIG   0.0000
  55 H            3.8011    -4.8952    -2.4256 H            1    LIG   0.0000
  56 H            4.3392    -6.4313    -2.5589 H            1    LIG   0.0000
  57 H            4.7724    -6.1796    -0.0914 H            1    LIG   0.0000
  58 H            5.8621    -5.6322    -1.1774 H            1    LIG   0.0000
  59 H            5.2098    -4.1995     0.7632 H            1    LIG   0.0000
  60 H            5.4874    -3.5203    -0.6957 H            1    LIG   0.0000
  61 H           -2.5252     3.1493     1.1490 H            1    LIG   0.0000
  62 H           -1.9705     1.7718     1.8284 H            1    LIG   0.0000
  63 H           -1.0485     3.1195     1.8455 H            1    LIG   0.0000
  64 H           -2.3964     4.4317    -2.0377 H            1    LIG   0.0000
  65 H           -2.5910     4.3460    -0.4186 H            1    LIG   0.0000
  66 H           -1.1085     4.6116    -1.0499 H            1    LIG   0.0000
  67 H           -2.9542     0.9569    -1.1400 H            1    LIG   0.0000
  68 H           -3.7599     2.3528    -0.8770 H            1    LIG   0.0000
@<TRIPOS>BOND
   1        1        2 1
   2        2        3 1
   3        3        4 2
   4        4        5 1
   5        5        6 1
   6        5        7 1
   7        7        8 1
   8        8        9 1
   9        7       10 2
  10       10        3 1
  11       10       11 1
  12       11       12 1
  13       12       13 1
  14       13       14 1
  15       14       15 2
  16       15       16 1
  17       16       17 2
  18       17       18 1
  19       18       14 1
  20       17       19 1
  21       19       20 1
  22       20       21 1
  23       21       22 1
  24       22       23 1
  25       23       16 1
  26       13       24 2
  27       24       25 1
  28       25       26 2
  29       26       12 1
  30       26       27 1
  31       27       28 1
  32       27       29 1
  33       29       30 1
  34       29       31 1
  35       31       32 1
  36       32       33 3
  37       29       34 1
  38        1       35 1
  39        1       36 1
  40        1       37 1
  41        2       38 1
  42        2       39 1
  43        6       40 1
  44        6       41 1
  45        6       42 1
  46        8       43 1
  47        8       44 1
  48        9       45 1
  49        9       46 1
  50        9       47 1
  51       11       48 1
  52       11       49 1
  53       15       50 1
  54       19       51 1
  55       19       52 1
  56       20       53 1
  57       20       54 1
  58       21       55 1
  59       21       56 1
  60       22       57 1
  61       22       58 1
  62       23       59 1
  63       23       60 1
  64       28       61 1
  65       28       62 1
  66       28       63 1
  67       30       64 1
  68       30       65 1
  69       30       66 1
  70       31       67 1
  71       31       68 1

@<TRIPOS>MOLECULE

  68   71
SMALL
USER_CHARGES
@<TRIPOS>ATOM
   1 C1          -2.8661    -4.1715     0.6171 C.3          1    LIG   0.0000
   2 C2          -3.4370    -2.8026     0.9500 C.3          1    LIG   0.0000
   3 C3          -2.4674    -2.0546     1.8497 C.2          1    LIG   0.0000
   4 N4          -2.4537    -2.0855     3.1599 N.2          1    LIG   0.0000
   5 N5          -1.4855    -1.3205     3.6045 N.pl3        1    LIG   0.0000
   6 C6          -1.1589    -1.1045     5.0224 C.3          1    LIG   0.0000
   7 C7          -0.8209    -0.7613     2.5559 C.2          1    LIG   0.0000
   8 C8           0.3668     0.1836     2.6397 C.3          1    LIG   0.0000
   9 C9           0.0520     1.3081     3.6127 C.3          1    LIG   0.0000
  10 C10         -1.4242    -1.2087     1.4221 C.2          1    LIG   0.0000
  11 C11         -1.0507    -0.8686    -0.0109 C.3          1    LIG   0.0000
  12 N12          0.0969     0.0481    -0.0133 N.pl3        1    LIG   0.0000
  13 C13          1.4071    -0.3124    -0.0293 C.2          1    LIG   0.0000
  14 C14          1.9410    -1.6603    -0.0557 C.2          1    LIG   0.0000
  15 C15          1.2418    -2.8294    -0.0534 C.2          1    LIG   0.0000
  16 C16          2.0111    -4.0236    -0.0760 C.2          1    LIG   0.0000
  17 C17          3.3550    -3.7992    -0.1121 C.2          1    LIG   0.0000
  18 S18          3.5821    -2.1032    -0.0884 S.3          1    LIG   0.0000
  19 C19          4.4582    -4.8452    -0.1632 C.3          1    LIG   0.0000
  20 C20          4.6452    -5.5083     1.1947 C.3          1    LIG   0.0000
  21 C21          3.3095    -6.0773     1.6584 C.3          1    LIG   0.0000
  22 C22          2.3955    -6.5386     0.5271 C.3          1    LIG   0.0000
  23 C23          1.4848    -5.4615    -0.0583 C.3          1    LIG   0.0000
  24 N24          2.0962     0.7986    -0.0261 N.2          1    LIG   0.0000
  25 N25          1.2800     1.8369     0.0092 N.2          1    LIG   0.0000
  26 C26          0.0401     1.4086     0.0104 C.2          1    LIG   0.0000
  27 N27         -1.1148     2.1984     0.0321 N.pl3        1    LIG   0.0000
  28 C28         -2.4402     1.5627     0.0303 C.3          1    LIG   0.0000
  29 C29         -1.0026     3.6639     0.0569 C.3          1    LIG   0.0000
  30 C30         -1.8747     4.2201     1.1706 C.3          1    LIG   0.0000
  31 C31         -1.4620     4.2299    -1.2769 C.3          1    LIG   0.0000
  32 C32         -1.3459     5.7452    -1.2513 C.1          1    LIG   0.0000
  33 N33         -1.2589     6.8817    -1.2321 N.1          1    LIG   0.0000
  34 H           -0.0502     3.9227     0.2185 H            1    LIG   0.0000
  35 H           -3.5041    -4.6637     0.0250 H            1    LIG   0.0000
  36 H           -1.9908    -4.0620     0.1460 H            1    LIG   0.0000
  37 H           -2.7277    -4.6892     1.4614 H            1    LIG   0.0000
  38 H           -3.5753    -2.2849     0.1057 H            1    LIG   0.0000
  39 H           -4.3122    -2.9121     1.4211 H            1    LIG   0.0000
  40 H           -0.3809    -0.4802     5.0939 H            1    LIG   0.0000
  41 H           -1.9489    -0.7074     5.4897 H            1    LIG   0.0000
  42 H           -0.9249    -1.9788     5.4475 H            1    LIG   0.0000
  43 H            0.5518     0.5675     1.7351 H            1    LIG   0.0000
  44 H            1.1703    -0.3186     2.9594 H            1    LIG   0.0000
  45 H            0.8333     1.9297     3.6678 H            1    LIG   0.0000
  46 H           -0.7516     1.8102     3.2931 H            1    LIG   0.0000
  47 H           -0.1330     0.9241     4.5173 H            1    LIG   0.0000
  48 H           -0.8089    -1.7066    -0.5002 H            1    LIG   0.0000
  49 H           -1.8279    -0.4310    -0.4630 H            1    LIG   0.0000
  50 H            0.2420    -2.8461    -0.0368 H            1    LIG   0.0000
  51 H            5.3144    -4.4044    -0.4325 H            1    LIG   0.0000
  52 H            4.2161    -5.5431    -0.8373 H            1    LIG   0.0000
  53 H            4.9691    -4.8319     1.8562 H            1    LIG   0.0000
  54 H            5.3153    -6.2466     1.1176 H            1    LIG   0.0000
  55 H            2.8313    -5.3695     2.1782 H            1    LIG   0.0000
  56 H            3.4924    -6.8609     2.2522 H            1    LIG   0.0000
  57 H            2.9713    -6.8906    -0.2109 H            1    LIG   0.0000
  58 H            1.8169    -7.2746     0.8784 H            1    LIG   0.0000
  59 H            1.2856    -5.7192    -1.0038 H            1    LIG   0.0000
  60 H            0.6379    -5.4639     0.4734 H            1    LIG   0.0000
  61 H           -3.1484     2.2685     0.0475 H            1    LIG   0.0000
  62 H           -2.5426     1.0078    -0.7953 H            1    LIG   0.0000
  63 H           -2.5312     0.9794     0.8374 H            1    LIG   0.0000
  64 H           -1.7984     5.2171     1.1875 H            1    LIG   0.0000
  65 H           -2.8271     3.9614     1.0090 H            1    LIG   0.0000
  66 H           -1.5725     3.8478     2.0482 H            1    LIG   0.0000
  67 H           -0.8882     3.8640    -2.0097 H            1    LIG   0.0000
  68 H           -2.4143     3.9712    -1.4386 H            1    LIG   0.0000
@<TRIPOS>BOND
   1        1        2 1
   2        2        3 1
   3        3        4 2
   4        4        5 1
   5        5        6 1
   6        5        7 1
   7        7        8 1
   8        8        9 1
   9        7       10 2
  10       10        3 1
  11       10       11 1
  12       11       12 1
  13       12       13 1
  14       13       14 1
  15       14       15 2
  16       15       16 1
  17       16       17 2
  18       17       18 1
  19       18       14 1
  20       17       19 1
  21       19       20 1
  22       20       21 1
  23       21       22 1
  24       22       23 1
  25       23       16 1
  26       13       24 2
  27       24       25 1
  28       25       26 2
  29       26       12 1
  30       26       27 1
  31       27       28 1
  32       27       29 1
  33       29       30 1
  34       29       31 1
  35       31       32 1
  36       32       33 3
  37       29       34 1
  38        1       35 1
  39        1       36 1
  40        1       37 1
  41        2       38 1
  42        2       39 1
  43        6       40 1
  44        6       41 1
  45        6       42 1
  46        8       43 1
  47        8       44 1
  48        9       45 1
  49        9       46 1
  50        9       47 1
  51       11       48 1
  52       11       49 1
  53       15       50 1
  54       19       51 1
  55       19       52 1
  56       20       53 1
  57       20       54 1
  58       21       55 1
  59       21       56 1
  60       22       57 1
  61       22       58 1
  62       23       59 1
  63       23       60 1
  64       28       61 1
  65       28       62 1
  66       28       63 1
  67       30       64 1
  68       30       65 1
  69       30       66 1
  70       31       67 1
  71       31       68 1

@<TRIPOS>MOLECULE

  68   71
SMALL
USER_CHARGES
@<TRIPOS>ATOM
   1 C1          -2.8661    -4.1715     0.6171 C.3          1    LIG   0.0000
   2 C2          -3.4370    -2.8026     0.9500 C.3          1    LIG   0.0000
   3 C3          -2.4674    -2.0546     1.8497 C.2          1    LIG   0.0000
   4 N4          -2.4537    -2.0855     3.1599 N.2          1    LIG   0.0000
   5 N5          -1.4855    -1.3205     3.6045 N.pl3        1    LIG   0.0000
   6 C6          -1.1589    -1.1045     5.0224 C.3          1    LIG   0.0000
   7 C7          -0.8209    -0.7613     2.5559 C.2          1    LIG   0.0000
   8 C8           0.3668     0.1836     2.6397 C.3          1    LIG   0.0000
   9 C9           0.0520     1.3081     3.6127 C.3          1    LIG   0.0000
  10 C10         -1.4242    -1.2087     1.4221 C.2          1    LIG   0.0000
  11 C11         -1.0507    -0.8686    -0.0109 C.3          1    LIG   0.0000
  12 N12          0.0969     0.0481    -0.0133 N.pl3        1    LIG   0.0000
  13 C13          1.4071    -0.3124    -0.0293 C.2          1    LIG   0.0000
  14 C14          1.9404    -1.6588    -0.0556 C.2          1    LIG   0.0000
  15 C15          2.0828    -2.4951     1.0121 C.2          1    LIG   0.0000
  16 C16          2.6386    -3.7660     0.6655 C.2          1    LIG   0.0000
  17 C17          2.9401    -3.9478    -0.6598 C.2          1    LIG   0.0000
  18 S18          2.5113    -2.4917    -1.4266 S.3          1    LIG   0.0000
  19 C19          3.5331    -5.1299    -1.4228 C.3          1    LIG   0.0000
  20 C20          4.4223    -6.0531    -0.5925 C.3          1    LIG   0.0000
  21 C21          5.2354    -5.3686     0.5028 C.3          1    LIG   0.0000
  22 C22          4.4513    -5.1198     1.7865 C.3          1    LIG   0.0000
  23 C23          2.9675    -5.0069     1.4876 C.3          1    LIG   0.0000
  24 N24          2.0962     0.7986    -0.0261 N.2          1    LIG   0.0000
  25 N25          1.2800     1.8369     0.0092 N.2          1    LIG   0.0000
  26 C26          0.0401     1.4086     0.0104 C.2          1    LIG   0.0000
  27 N27         -1.1148     2.1984     0.0321 N.pl3        1    LIG   0.0000
  28 C28         -2.4402     1.5627     0.0303 C.3          1    LIG   0.0000
  29 C29         -1.0026     3.6639     0.0569 C.3          1    LIG   0.0000
  30 C30          0.4415     4.0659    -0.1950 C.3          1    LIG   0.0000
  31 C31         -1.4432     4.1830     1.4159 C.3          1    LIG   0.0000
  32 C32         -0.8827     5.5793     1.6311 C.1          1    LIG   0.0000
  33 N33         -0.4623     6.6266     1.7924 N.1          1    LIG   0.0000
  34 H           -1.5864     4.0550    -0.6546 H            1    LIG   0.0000
  35 H           -3.5041    -4.6637     0.0250 H            1    LIG   0.0000
  36 H           -1.9908    -4.0620     0.1460 H            1    LIG   0.0000
  37 H           -2.7277    -4.6892     1.4614 H            1    LIG   0.0000
  38 H           -3.5753    -2.2849     0.1057 H            1    LIG   0.0000
  39 H           -4.3122    -2.9121     1.4211 H            1    LIG   0.0000
  40 H           -0.3809    -0.4802     5.0939 H            1    LIG   0.0000
  41 H           -1.9489    -0.7074     5.4897 H            1    LIG   0.0000
  42 H           -0.9249    -1.9788     5.4475 H            1    LIG   0.0000
  43 H            0.5518     0.5675     1.7351 H            1    LIG   0.0000
  44 H            1.1703    -0.3186     2.9594 H            1    LIG   0.0000
  45 H            0.8333     1.9297     3.6678 H            1    LIG   0.0000
  46 H           -0.7516     1.8102     3.2931 H            1    LIG   0.0000
  47 H           -0.1330     0.9241     4.5173 H            1    LIG   0.0000
  48 H           -0.8089    -1.7066    -0.5002 H            1    LIG   0.0000
  49 H           -1.8279    -0.4310    -0.4630 H            1    LIG   0.0000
  50 H            1.8241    -2.2443     1.9449 H            1    LIG   0.0000
  51 H            4.0804    -4.7687    -2.1778 H            1    LIG   0.0000
  52 H            2.7777    -5.6734    -1.7887 H            1    LIG   0.0000
  53 H            5.0616    -6.5063    -1.2137 H            1    LIG   0.0000
  54 H            3.8364    -6.7380    -0.1593 H            1    LIG   0.0000
  55 H            5.5564    -4.4882     0.1537 H            1    LIG   0.0000
  56 H            6.0213    -5.9474     0.7205 H            1    LIG   0.0000
  57 H            4.6032    -5.8803     2.4178 H            1    LIG   0.0000
  58 H            4.7684    -4.2695     2.2065 H            1    LIG   0.0000
  59 H            2.6791    -5.8171     0.9773 H            1    LIG   0.0000
  60 H            2.4673    -4.9622     2.3524 H            1    LIG   0.0000
  61 H           -3.1484     2.2685     0.0475 H            1    LIG   0.0000
  62 H           -2.5426     1.0078    -0.7953 H            1    LIG   0.0000
  63 H           -2.5312     0.9794     0.8374 H            1    LIG   0.0000
  64 H            0.5178     5.0628    -0.1782 H            1    LIG   0.0000
  65 H            1.0253     3.6748     0.5165 H            1    LIG   0.0000
  66 H            0.7314     3.7244    -1.0891 H            1    LIG   0.0000
  67 H           -2.4420     4.2154     1.4524 H            1    LIG   0.0000
  68 H           -1.1031     3.5733     2.1318 H            1    LIG   0.0000
@<TRIPOS>BOND
   1        1        2 1
   2        2        3 1
   3        3        4 2
   4        4        5 1
   5        5        6 1
   6        5        7 1
   7        7        8 1
   8        8        9 1
   9        7       10 2
  10       10        3 1
  11       10       11 1
  12       11       12 1
  13       12       13 1
  14       13       14 1
  15       14       15 2
  16       15       16 1
  17       16       17 2
  18       17       18 1
  19       18       14 1
  20       17       19 1
  21       19       20 1
  22       20       21 1
  23       21       22 1
  24       22       23 1
  25       23       16 1
  26       13       24 2
  27       24       25 1
  28       25       26 2
  29       26       12 1
  30       26       27 1
  31       27       28 1
  32       27       29 1
  33       29       30 1
  34       29       31 1
  35       31       32 1
  36       32       33 3
  37       29       34 1
  38        1       35 1
  39        1       36 1
  40        1       37 1
  41        2       38 1
  42        2       39 1
  43        6       40 1
  44        6       41 1
  45        6       42 1
  46        8       43 1
  47        8       44 1
  48        9       45 1
  49        9       46 1
  50        9       47 1
  51       11       48 1
  52       11       49 1
  53       15       50 1
  54       19       51 1
  55       19       52 1
  56       20       53 1
  57       20       54 1
  58       21       55 1
  59       21       56 1
  60       22       57 1
  61       22       58 1
  62       23       59 1
  63       23       60 1
  64       28       61 1
  65       28       62 1
  66       28       63 1
  67       30       64 1
  68       30       65 1
  69       30       66 1
  70       31       67 1
  71       31       68 1

@<TRIPOS>MOLECULE

  68   71
SMALL
USER_CHARGES
@<TRIPOS>ATOM
   1 C1          -2.8661    -4.1715     0.6171 C.3          1    LIG   0.0000
   2 C2          -3.4370    -2.8026     0.9500 C.3          1    LIG   0.0000
   3 C3          -2.4674    -2.0546     1.8497 C.2          1    LIG   0.0000
   4 N4          -2.4537    -2.0855     3.1599 N.2          1    LIG   0.0000
   5 N5          -1.4855    -1.3205     3.6045 N.pl3        1    LIG   0.0000
   6 C6          -1.1589    -1.1045     5.0224 C.3          1    LIG   0.0000
   7 C7          -0.8209    -0.7613     2.5559 C.2          1    LIG   0.0000
   8 C8           0.3668     0.1836     2.6397 C.3          1    LIG   0.0000
   9 C9           1.6561    -0.6215     2.6343 C.3          1    LIG   0.0000
  10 C10         -1.4242    -1.2087     1.4221 C.2          1    LIG   0.0000
  11 C11         -1.0507    -0.8686    -0.0109 C.3          1    LIG   0.0000
  12 N12          0.0969     0.0481    -0.0133 N.pl3        1    LIG   0.0000
  13 C13          1.4071    -0.3124    -0.0293 C.2          1    LIG   0.0000
  14 C14          1.9417    -1.6620    -0.0557 C.2          1    LIG   0.0000
  15 C15          1.2259    -2.8258    -0.0536 C.2          1    LIG   0.0000
  16 C16          2.0542    -3.9865    -0.0436 C.2          1    LIG   0.0000
  17 C17          3.4074    -3.7432    -0.0977 C.2          1    LIG   0.0000
  18 S18          3.6000    -2.0533    -0.0880 S.3          1    LIG   0.0000
  19 C19          4.6110    -4.6695    -0.1482 C.3          1    LIG   0.0000
  20 C20          4.2112    -5.9895    -0.7924 C.3          1    LIG   0.0000
  21 C21          3.5352    -6.9160     0.2095 C.3          1    LIG   0.0000
  22 C22          2.3282    -6.3057     0.9101 C.3          1    LIG   0.0000
  23 C23          1.4838    -5.3964     0.0249 C.3          1    LIG   0.0000
  24 N24          2.0962     0.7986    -0.0261 N.2          1    LIG   0.0000
  25 N25          1.2800     1.8369     0.0092 N.2          1    LIG   0.0000
  26 C26          0.0401     1.4086     0.0104 C.2          1    LIG   0.0000
  27 N27         -1.1148     2.1984     0.0321 N.pl3        1    LIG   0.0000
  28 C28         -1.0489     3.6082    -0.3792 C.3          1    LIG   0.0000
  29 C29         -2.3938     1.6185     0.4664 C.3          1    LIG   0.0000
  30 C30         -3.3244     1.4916    -0.7287 C.3          1    LIG   0.0000
  31 C31         -3.0306     2.5207     1.5109 C.3          1    LIG   0.0000
  32 C32         -4.3532     1.9210     1.9599 C.1          1    LIG   0.0000
  33 N33         -5.3451     1.4712     2.2967 N.1          1    LIG   0.0000
  34 H           -2.2327     0.7138     0.8610 H            1    LIG   0.0000
  35 H           -3.5041    -4.6637     0.0250 H            1    LIG   0.0000
  36 H           -1.9908    -4.0620     0.1460 H            1    LIG   0.0000
  37 H           -2.7277    -4.6892     1.4614 H            1    LIG   0.0000
  38 H           -3.5753    -2.2849     0.1057 H            1    LIG   0.0000
  39 H           -4.3122    -2.9121     1.4211 H            1    LIG   0.0000
  40 H           -0.3809    -0.4802     5.0939 H            1    LIG   0.0000
  41 H           -1.9489    -0.7074     5.4897 H            1    LIG   0.0000
  42 H           -0.9249    -1.9788     5.4475 H            1    LIG   0.0000
  43 H            0.3100     0.7163     3.4841 H            1    LIG   0.0000
  44 H            0.3567     0.8021     1.8540 H            1    LIG   0.0000
  45 H            2.4374     0.0001     2.6894 H            1    LIG   0.0000
  46 H            1.6661    -1.2401     3.4200 H            1    LIG   0.0000
  47 H            1.7128    -1.1542     1.7899 H            1    LIG   0.0000
  48 H           -0.8089    -1.7066    -0.5002 H            1    LIG   0.0000
  49 H           -1.8279    -0.4310    -0.4630 H            1    LIG   0.0000
  50 H            0.2265    -2.8599    -0.0585 H            1    LIG   0.0000
  51 H            4.9403    -4.8386     0.7807 H            1    LIG   0.0000
  52 H            5.3374    -4.2427    -0.6868 H            1    LIG   0.0000
  53 H            5.0304    -6.4385    -1.1491 H            1    LIG   0.0000
  54 H            3.5777    -5.8057    -1.5441 H            1    LIG   0.0000
  55 H            4.2071    -7.1686     0.9057 H            1    LIG   0.0000
  56 H            3.2339    -7.7365    -0.2762 H            1    LIG   0.0000
  57 H            1.7473    -7.0502     1.2391 H            1    LIG   0.0000
  58 H            2.6556    -5.7696     1.6882 H            1    LIG   0.0000
  59 H            1.4551    -5.7793    -0.8985 H            1    LIG   0.0000
  60 H            0.5565    -5.3528     0.3966 H            1    LIG   0.0000
  61 H           -1.9569     4.0203    -0.3032 H            1    LIG   0.0000
  62 H           -0.4096     4.0987     0.2129 H            1    LIG   0.0000
  63 H           -0.7356     3.6645    -1.3272 H            1    LIG   0.0000
  64 H           -4.1945     1.0971    -0.4333 H            1    LIG   0.0000
  65 H           -3.4855     2.3963    -1.1233 H            1    LIG   0.0000
  66 H           -2.9055     0.8981    -1.4159 H            1    LIG   0.0000
  67 H           -2.4184     2.6041     2.2971 H            1    LIG   0.0000
  68 H           -3.1917     3.4253     1.1163 H            1    LIG   0.0000
@<TRIPOS>BOND
   1        1        2 1
   2        2        3 1
   3        3        4 2
   4        4        5 1
   5        5        6 1
   6        5        7 1
   7        7        8 1
   8        8        9 1
   9        7       10 2
  10       10        3 1
  11       10       11 1
  12       11       12 1
  13       12       13 1
  14       13       14 1
  15       14       15 2
  16       15       16 1
  17       16       17 2
  18       17       18 1
  19       18       14 1
  20       17       19 1
  21       19       20 1
  22       20       21 1
  23       21       22 1
  24       22       23 1
  25       23       16 1
  26       13       24 2
  27       24       25 1
  28       25       26 2
  29       26       12 1
  30       26       27 1
  31       27       28 1
  32       27       29 1
  33       29       30 1
  34       29       31 1
  35       31       32 1
  36       32       33 3
  37       29       34 1
  38        1       35 1
  39        1       36 1
  40        1       37 1
  41        2       38 1
  42        2       39 1
  43        6       40 1
  44        6       41 1
  45        6       42 1
  46        8       43 1
  47        8       44 1
  48        9       45 1
  49        9       46 1
  50        9       47 1
  51       11       48 1
  52       11       49 1
  53       15       50 1
  54       19       51 1
  55       19       52 1
  56       20       53 1
  57       20       54 1
  58       21       55 1
  59       21       56 1
  60       22       57 1
  61       22       58 1
  62       23       59 1
  63       23       60 1
  64       28       61 1
  65       28       62 1
  66       28       63 1
  67       30       64 1
  68       30       65 1
  69       30       66 1
  70       31       67 1
  71       31       68 1

@<TRIPOS>MOLECULE

  68   71
SMALL
USER_CHARGES
@<TRIPOS>ATOM
   1 C1          -2.8661    -4.1715     0.6171 C.3          1    LIG   0.0000
   2 C2          -3.4370    -2.8026     0.9500 C.3          1    LIG   0.0000
   3 C3          -2.4674    -2.0546     1.8497 C.2          1    LIG   0.0000
   4 N4          -2.4537    -2.0855     3.1599 N.2          1    LIG   0.0000
   5 N5          -1.4855    -1.3205     3.6045 N.pl3        1    LIG   0.0000
   6 C6          -1.1589    -1.1045     5.0224 C.3          1    LIG   0.0000
   7 C7          -0.8209    -0.7613     2.5559 C.2          1    LIG   0.0000
   8 C8           0.3668     0.1836     2.6397 C.3          1    LIG   0.0000
   9 C9           1.6561    -0.6215     2.6343 C.3          1    LIG   0.0000
  10 C10         -1.4242    -1.2087     1.4221 C.2          1    LIG   0.0000
  11 C11         -1.0507    -0.8686    -0.0109 C.3          1    LIG   0.0000
  12 N12          0.0969     0.0481    -0.0133 N.pl3        1    LIG   0.0000
  13 C13          1.4071    -0.3124    -0.0293 C.2          1    LIG   0.0000
  14 C14          1.9408    -1.6597    -0.0557 C.2          1    LIG   0.0000
  15 C15          3.0264    -2.1571     0.5947 C.2          1    LIG   0.0000
  16 C16          3.2404    -3.5443     0.3348 C.2          1    LIG   0.0000
  17 C17          2.3487    -4.1302    -0.5337 C.2          1    LIG   0.0000
  18 S18          1.2487    -2.9127    -0.9800 S.3          1    LIG   0.0000
  19 C19          2.0783    -5.4745    -1.1846 C.3          1    LIG   0.0000
  20 C20          3.4457    -6.1149    -1.4177 C.3          1    LIG   0.0000
  21 C21          4.1042    -6.7261    -0.1793 C.3          1    LIG   0.0000
  22 C22          4.0523    -5.8838     1.0950 C.3          1    LIG   0.0000
  23 C23          4.3619    -4.3963     0.9288 C.3          1    LIG   0.0000
  24 N24          2.0962     0.7986    -0.0261 N.2          1    LIG   0.0000
  25 N25          1.2800     1.8369     0.0092 N.2          1    LIG   0.0000
  26 C26          0.0401     1.4086     0.0104 C.2          1    LIG   0.0000
  27 N27         -1.1148     2.1984     0.0321 N.pl3        1    LIG   0.0000
  28 C28         -1.7302     2.6355    -1.2292 C.3          1    LIG   0.0000
  29 C29         -1.7125     2.5911     1.3164 C.3          1    LIG   0.0000
  30 C30         -3.2000     2.2788     1.2995 C.3          1    LIG   0.0000
  31 C31         -1.5102     4.0817     1.5347 C.3          1    LIG   0.0000
  32 C32         -2.1283     4.4878     2.8627 C.1          1    LIG   0.0000
  33 N33         -2.5919     4.7923     3.8587 N.1          1    LIG   0.0000
  34 H           -1.2737     2.0831     2.0576 H            1    LIG   0.0000
  35 H           -3.5041    -4.6637     0.0250 H            1    LIG   0.0000
  36 H           -1.9908    -4.0620     0.1460 H            1    LIG   0.0000
  37 H           -2.7277    -4.6892     1.4614 H            1    LIG   0.0000
  38 H           -3.5753    -2.2849     0.1057 H            1    LIG   0.0000
  39 H           -4.3122    -2.9121     1.4211 H            1    LIG   0.0000
  40 H           -0.3809    -0.4802     5.0939 H            1    LIG   0.0000
  41 H           -1.9489    -0.7074     5.4897 H            1    LIG   0.0000
  42 H           -0.9249    -1.9788     5.4475 H            1    LIG   0.0000
  43 H            0.3100     0.7163     3.4841 H            1    LIG   0.0000
  44 H            0.3567     0.8021     1.8540 H            1    LIG   0.0000
  45 H            2.4374     0.0001     2.6894 H            1    LIG   0.0000
  46 H            1.6661    -1.2401     3.4200 H            1    LIG   0.0000
  47 H            1.7128    -1.1542     1.7899 H            1    LIG   0.0000
  48 H           -0.8089    -1.7066    -0.5002 H            1    LIG   0.0000
  49 H           -1.8279    -0.4310    -0.4630 H            1    LIG   0.0000
  50 H            3.6126    -1.6093     1.1916 H            1    LIG   0.0000
  51 H            1.6009    -5.3493    -2.0543 H            1    LIG   0.0000
  52 H            1.5251    -6.0478    -0.5802 H            1    LIG   0.0000
  53 H            4.0585    -5.4113    -1.7774 H            1    LIG   0.0000
  54 H            3.3349    -6.8398    -2.0976 H            1    LIG   0.0000
  55 H            5.0661    -6.8933    -0.3959 H            1    LIG   0.0000
  56 H            3.6492    -7.5960     0.0108 H            1    LIG   0.0000
  57 H            3.1316    -5.9637     1.4771 H            1    LIG   0.0000
  58 H            4.7151    -6.2640     1.7401 H            1    LIG   0.0000
  59 H            4.5827    -4.0265     1.8313 H            1    LIG   0.0000
  60 H            5.1591    -4.3141     0.3307 H            1    LIG   0.0000
  61 H           -2.5404     3.1873    -1.0312 H            1    LIG   0.0000
  62 H           -1.0735     3.1821    -1.7488 H            1    LIG   0.0000
  63 H           -1.9955     1.8344    -1.7658 H            1    LIG   0.0000
  64 H           -3.6066     2.5460     2.1732 H            1    LIG   0.0000
  65 H           -3.6389     2.7869     0.5584 H            1    LIG   0.0000
  66 H           -3.3331     1.2982     1.1559 H            1    LIG   0.0000
  67 H           -0.5316     4.2872     1.5459 H            1    LIG   0.0000
  68 H           -1.9491     4.5898     0.7936 H            1    LIG   0.0000
@<TRIPOS>BOND
   1        1        2 1
   2        2        3 1
   3        3        4 2
   4        4        5 1
   5        5        6 1
   6        5        7 1
   7        7        8 1
   8        8        9 1
   9        7       10 2
  10       10        3 1
  11       10       11 1
  12       11       12 1
  13       12       13 1
  14       13       14 1
  15       14       15 2
  16       15       16 1
  17       16       17 2
  18       17       18 1
  19       18       14 1
  20       17       19 1
  21       19       20 1
  22       20       21 1
  23       21       22 1
  24       22       23 1
  25       23       16 1
  26       13       24 2
  27       24       25 1
  28       25       26 2
  29       26       12 1
  30       26       27 1
  31       27       28 1
  32       27       29 1
  33       29       30 1
  34       29       31 1
  35       31       32 1
  36       32       33 3
  37       29       34 1
  38        1       35 1
  39        1       36 1
  40        1       37 1
  41        2       38 1
  42        2       39 1
  43        6       40 1
  44        6       41 1
  45        6       42 1
  46        8       43 1
  47        8       44 1
  48        9       45 1
  49        9       46 1
  50        9       47 1
  51       11       48 1
  52       11       49 1
  53       15       50 1
  54       19       51 1
  55       19       52 1
  56       20       53 1
  57       20       54 1
  58       21       55 1
  59       21       56 1
  60       22       57 1
  61       22       58 1
  62       23       59 1
  63       23       60 1
  64       28       61 1
  65       28       62 1
  66       28       63 1
  67       30       64 1
  68       30       65 1
  69       30       66 1
  70       31       67 1
  71       31       68 1

@<TRIPOS>MOLECULE

  68   71
SMALL
USER_CHARGES
@<TRIPOS>ATOM
   1 C1          -2.6596    -3.5558    -0.1172 C.3          1    LIG   0.0000
   2 C2          -3.4370    -2.8026     0.9500 C.3          1    LIG   0.0000
   3 C3          -2.4674    -2.0546     1.8497 C.2          1    LIG   0.0000
   4 N4          -2.4537    -2.0855     3.1599 N.2          1    LIG   0.0000
   5 N5          -1.4855    -1.3205     3.6045 N.pl3        1    LIG   0.0000
   6 C6          -1.1589    -1.1045     5.0224 C.3          1    LIG   0.0000
   7 C7          -0.8209    -0.7613     2.5559 C.2          1    LIG   0.0000
   8 C8           0.3668     0.1836     2.6397 C.3          1    LIG   0.0000
   9 C9           1.6561    -0.6215     2.6343 C.3          1    LIG   0.0000
  10 C10         -1.4242    -1.2087     1.4221 C.2          1    LIG   0.0000
  11 C11         -1.0507    -0.8686    -0.0109 C.3          1    LIG   0.0000
  12 N12          0.0969     0.0481    -0.0133 N.pl3        1    LIG   0.0000
  13 C13          1.4071    -0.3124    -0.0293 C.2          1    LIG   0.0000
  14 C14          1.9412    -1.6606    -0.0557 C.2          1    LIG   0.0000
  15 C15          3.0082    -2.1087    -0.7754 C.2          1    LIG   0.0000
  16 C16          3.3071    -3.4867    -0.5756 C.2          1    LIG   0.0000
  17 C17          2.4459    -4.1078     0.2935 C.2          1    LIG   0.0000
  18 S18          1.3101    -2.9634     0.8406 S.3          1    LIG   0.0000
  19 C19          2.2950    -5.5195     0.8502 C.3          1    LIG   0.0000
  20 C20          3.6790    -6.1028     1.1296 C.3          1    LIG   0.0000
  21 C21          4.4421    -6.5941    -0.0995 C.3          1    LIG   0.0000
  22 C22          4.3072    -5.7610    -1.3745 C.3          1    LIG   0.0000
  23 C23          4.4648    -4.2456    -1.2242 C.3          1    LIG   0.0000
  24 N24          2.0962     0.7986    -0.0261 N.2          1    LIG   0.0000
  25 N25          1.2800     1.8369     0.0092 N.2          1    LIG   0.0000
  26 C26          0.0401     1.4086     0.0104 C.2          1    LIG   0.0000
  27 N27         -1.1148     2.1984     0.0321 N.pl3        1    LIG   0.0000
  28 C28         -2.3999     1.6336    -0.4043 C.3          1    LIG   0.0000
  29 C29         -1.0429     3.5930     0.4914 C.3          1    LIG   0.0000
  30 C30         -0.2859     4.4248    -0.5311 C.3          1    LIG   0.0000
  31 C31         -0.3191     3.6500     1.8268 C.3          1    LIG   0.0000
  32 C32         -0.6619     4.9511     2.5338 C.1          1    LIG   0.0000
  33 N33         -0.9190     5.9270     3.0641 N.1          1    LIG   0.0000
  34 H           -1.9682     3.9570     0.5980 H            1    LIG   0.0000
  35 H           -3.2977    -4.0481    -0.7093 H            1    LIG   0.0000
  36 H           -2.1301    -2.9072    -0.6640 H            1    LIG   0.0000
  37 H           -2.0397    -4.2076     0.3196 H            1    LIG   0.0000
  38 H           -4.0569    -2.1508     0.5131 H            1    LIG   0.0000
  39 H           -3.9664    -3.4512     1.4968 H            1    LIG   0.0000
  40 H           -0.3809    -0.4802     5.0939 H            1    LIG   0.0000
  41 H           -1.9489    -0.7074     5.4897 H            1    LIG   0.0000
  42 H           -0.9249    -1.9788     5.4475 H            1    LIG   0.0000
  43 H            0.3100     0.7163     3.4841 H            1    LIG   0.0000
  44 H            0.3567     0.8021     1.8540 H            1    LIG   0.0000
  45 H            2.4374     0.0001     2.6894 H            1    LIG   0.0000
  46 H            1.6661    -1.2401     3.4200 H            1    LIG   0.0000
  47 H            1.7128    -1.1542     1.7899 H            1    LIG   0.0000
  48 H           -0.8089    -1.7066    -0.5002 H            1    LIG   0.0000
  49 H           -1.8279    -0.4310    -0.4630 H            1    LIG   0.0000
  50 H            3.5351    -1.5214    -1.3898 H            1    LIG   0.0000
  51 H            1.8195    -6.0926     0.1828 H            1    LIG   0.0000
  52 H            1.7676    -5.4892     1.6993 H            1    LIG   0.0000
  53 H            3.5678    -6.8763     1.7535 H            1    LIG   0.0000
  54 H            4.2291    -5.3943     1.5716 H            1    LIG   0.0000
  55 H            4.1195    -7.5178    -0.3064 H            1    LIG   0.0000
  56 H            5.4125    -6.6258     0.1397 H            1    LIG   0.0000
  57 H            5.0050    -6.0761    -2.0178 H            1    LIG   0.0000
  58 H            3.3993    -5.9351    -1.7558 H            1    LIG   0.0000
  59 H            5.2810    -4.0810    -0.6703 H            1    LIG   0.0000
  60 H            4.6002    -3.8646    -2.1387 H            1    LIG   0.0000
  61 H           -3.1139     2.3292    -0.3247 H            1    LIG   0.0000
  62 H           -2.3276     1.3376    -1.3567 H            1    LIG   0.0000
  63 H           -2.6323     0.8499     0.1717 H            1    LIG   0.0000
  64 H           -0.2370     5.3735    -0.2186 H            1    LIG   0.0000
  65 H            0.6394     4.0609    -0.6376 H            1    LIG   0.0000
  66 H           -0.7621     4.3873    -1.4096 H            1    LIG   0.0000
  67 H           -0.6044     2.8773     2.3939 H            1    LIG   0.0000
  68 H            0.6680     3.6041     1.6732 H            1    LIG   0.0000
@<TRIPOS>BOND
   1        1        2 1
   2        2        3 1
   3        3        4 2
   4        4        5 1
   5        5        6 1
   6        5        7 1
   7        7        8 1
   8        8        9 1
   9        7       10 2
  10       10        3 1
  11       10       11 1
  12       11       12 1
  13       12       13 1
  14       13       14 1
  15       14       15 2
  16       15       16 1
  17       16       17 2
  18       17       18 1
  19       18       14 1
  20       17       19 1
  21       19       20 1
  22       20       21 1
  23       21       22 1
  24       22       23 1
  25       23       16 1
  26       13       24 2
  27       24       25 1
  28       25       26 2
  29       26       12 1
  30       26       27 1
  31       27       28 1
  32       27       29 1
  33       29       30 1
  34       29       31 1
  35       31       32 1
  36       32       33 3
  37       29       34 1
  38        1       35 1
  39        1       36 1
  40        1       37 1
  41        2       38 1
  42        2       39 1
  43        6       40 1
  44        6       41 1
  45        6       42 1
  46        8       43 1
  47        8       44 1
  48        9       45 1
  49        9       46 1
  50        9       47 1
  51       11       48 1
  52       11       49 1
  53       15       50 1
  54       19       51 1
  55       19       52 1
  56       20       53 1
  57       20       54 1
  58       21       55 1
  59       21       56 1
  60       22       57 1
  61       22       58 1
  62       23       59 1
  63       23       60 1
  64       28       61 1
  65       28       62 1
  66       28       63 1
  67       30       64 1
  68       30       65 1
  69       30       66 1
  70       31       67 1
  71       31       68 1

@<TRIPOS>MOLECULE

  68   71
SMALL
USER_CHARGES
@<TRIPOS>ATOM
   1 C1          -4.6544    -1.9326     0.6828 C.3          1    LIG   0.0000
   2 C2          -3.4370    -2.8026     0.9500 C.3          1    LIG   0.0000
   3 C3          -2.4674    -2.0546     1.8497 C.2          1    LIG   0.0000
   4 N4          -2.4537    -2.0855     3.1599 N.2          1    LIG   0.0000
   5 N5          -1.4855    -1.3205     3.6045 N.pl3        1    LIG   0.0000
   6 C6          -1.1589    -1.1045     5.0224 C.3          1    LIG   0.0000
   7 C7          -0.8209    -0.7613     2.5559 C.2          1    LIG   0.0000
   8 C8           0.3668     0.1836     2.6397 C.3          1    LIG   0.0000
   9 C9          -0.0315     1.4308     3.4118 C.3          1    LIG   0.0000
  10 C10         -1.4242    -1.2087     1.4221 C.2          1    LIG   0.0000
  11 C11         -1.0507    -0.8686    -0.0109 C.3          1    LIG   0.0000
  12 N12          0.0969     0.0481    -0.0133 N.pl3        1    LIG   0.0000
  13 C13          1.4071    -0.3124    -0.0293 C.2          1    LIG   0.0000
  14 C14          1.9417    -1.6620    -0.0557 C.2          1    LIG   0.0000
  15 C15          2.7314    -2.2104    -1.0264 C.2          1    LIG   0.0000
  16 C16          3.0552    -3.5758    -0.7725 C.2          1    LIG   0.0000
  17 C17          2.5767    -4.0822     0.4140 C.2          1    LIG   0.0000
  18 S18          1.6708    -2.8416     1.1441 S.3          1    LIG   0.0000
  19 C19          2.7218    -5.4418     1.0772 C.3          1    LIG   0.0000
  20 C20          4.0223    -6.0921     0.6268 C.3          1    LIG   0.0000
  21 C21          3.8673    -6.7660    -0.7300 C.3          1    LIG   0.0000
  22 C22          3.3506    -5.8472    -1.8294 C.3          1    LIG   0.0000
  23 C23          3.8702    -4.4166    -1.7455 C.3          1    LIG   0.0000
  24 N24          2.0962     0.7986    -0.0261 N.2          1    LIG   0.0000
  25 N25          1.2800     1.8369     0.0092 N.2          1    LIG   0.0000
  26 C26          0.0401     1.4086     0.0104 C.2          1    LIG   0.0000
  27 N27         -1.1148     2.1984     0.0321 N.pl3        1    LIG   0.0000
  28 C28         -1.7125     2.5911     1.3164 C.3          1    LIG   0.0000
  29 C29         -1.7302     2.6355    -1.2292 C.3          1    LIG   0.0000
  30 C30         -1.4642     1.5989    -2.3087 C.3          1    LIG   0.0000
  31 C31         -1.1332     3.9688    -1.6490 C.3          1    LIG   0.0000
  32 C32         -1.7696     4.4207    -2.9533 C.1          1    LIG   0.0000
  33 N33         -2.2469     4.7597    -3.9315 N.1          1    LIG   0.0000
  34 H           -2.7167     2.7376    -1.1010 H            1    LIG   0.0000
  35 H           -5.2924    -2.4249     0.0907 H            1    LIG   0.0000
  36 H           -5.1042    -1.7139     1.5487 H            1    LIG   0.0000
  37 H           -4.3674    -1.0867     0.2333 H            1    LIG   0.0000
  38 H           -3.7239    -3.6485     1.3995 H            1    LIG   0.0000
  39 H           -2.9871    -3.0214     0.0841 H            1    LIG   0.0000
  40 H           -0.3809    -0.4802     5.0939 H            1    LIG   0.0000
  41 H           -1.9489    -0.7074     5.4897 H            1    LIG   0.0000
  42 H           -0.9249    -1.9788     5.4475 H            1    LIG   0.0000
  43 H            0.6542     0.4403     1.7170 H            1    LIG   0.0000
  44 H            1.1228    -0.2721     3.1096 H            1    LIG   0.0000
  45 H            0.7499     2.0524     3.4669 H            1    LIG   0.0000
  46 H           -0.7875     1.8865     2.9418 H            1    LIG   0.0000
  47 H           -0.3189     1.1741     4.3345 H            1    LIG   0.0000
  48 H           -0.8089    -1.7066    -0.5002 H            1    LIG   0.0000
  49 H           -1.8279    -0.4310    -0.4630 H            1    LIG   0.0000
  50 H            3.0490    -1.7073    -1.8302 H            1    LIG   0.0000
  51 H            1.9511    -6.0233     0.8168 H            1    LIG   0.0000
  52 H            2.7329    -5.3282     2.0707 H            1    LIG   0.0000
  53 H            4.2935    -6.7784     1.3017 H            1    LIG   0.0000
  54 H            4.7315    -5.3900     0.5619 H            1    LIG   0.0000
  55 H            3.2262    -7.5270    -0.6305 H            1    LIG   0.0000
  56 H            4.7609    -7.1174    -1.0094 H            1    LIG   0.0000
  57 H            3.6252    -6.2291    -2.7118 H            1    LIG   0.0000
  58 H            2.3525    -5.8218    -1.7733 H            1    LIG   0.0000
  59 H            4.8218    -4.4352    -1.4389 H            1    LIG   0.0000
  60 H            3.8206    -4.0003    -2.6534 H            1    LIG   0.0000
  61 H           -2.5252     3.1493     1.1490 H            1    LIG   0.0000
  62 H           -1.9705     1.7718     1.8284 H            1    LIG   0.0000
  63 H           -1.0485     3.1195     1.8455 H            1    LIG   0.0000
  64 H           -1.8829     1.8962    -3.1668 H            1    LIG   0.0000
  65 H           -0.4777     1.4968    -2.4369 H            1    LIG   0.0000
  66 H           -1.8570     0.7217    -2.0325 H            1    LIG   0.0000
  67 H           -1.3082     4.6508    -0.9389 H            1    LIG   0.0000
  68 H           -0.1467     3.8667    -1.7773 H            1    LIG   0.0000
@<TRIPOS>BOND
   1        1        2 1
   2        2        3 1
   3        3        4 2
   4        4        5 1
   5        5        6 1
   6        5        7 1
   7        7        8 1
   8        8        9 1
   9        7       10 2
  10       10        3 1
  11       10       11 1
  12       11       12 1
  13       12       13 1
  14       13       14 1
  15       14       15 2
  16       15       16 1
  17       16       17 2
  18       17       18 1
  19       18       14 1
  20       17       19 1
  21       19       20 1
  22       20       21 1
  23       21       22 1
  24       22       23 1
  25       23       16 1
  26       13       24 2
  27       24       25 1
  28       25       26 2
  29       26       12 1
  30       26       27 1
  31       27       28 1
  32       27       29 1
  33       29       30 1
  34       29       31 1
  35       31       32 1
  36       32       33 3
  37       29       34 1
  38        1       35 1
  39        1       36 1
  40        1       37 1
  41        2       38 1
  42        2       39 1
  43        6       40 1
  44        6       41 1
  45        6       42 1
  46        8       43 1
  47        8       44 1
  48        9       45 1
  49        9       46 1
  50        9       47 1
  51       11       48 1
  52       11       49 1
  53       15       50 1
  54       19       51 1
  55       19       52 1
  56       20       53 1
  57       20       54 1
  58       21       55 1
  59       21       56 1
  60       22       57 1
  61       22       58 1
  62       23       59 1
  63       23       60 1
  64       28       61 1
  65       28       62 1
  66       28       63 1
  67       30       64 1
  68       30       65 1
  69       30       66 1
  70       31       67 1
  71       31       68 1

