@<TRIPOS>MOLECULE
*****
 68 71 0 0 0
SMALL
USER_CHARGES

@<TRIPOS>ATOM
      1 C1         -4.8605   -0.1147    1.7869 C.3     1  LIG1        0.0000
      2 C2         -3.4407    0.4231    1.7146 C.3     1  LIG1        0.0000
      3 C3         -2.4691   -0.6473    2.1833 C.2     1  LIG1        0.0000
      4 N4         -2.4584   -1.2117    3.3661 N.2     1  LIG1        0.0000
      5 N5         -1.4838   -2.0876    3.4229 N.pl3   1  LIG1        0.0000
      6 C6         -1.1594   -2.9203    4.5913 C.3     1  LIG1        0.0000
      7 C7         -0.8207   -2.1177    2.2341 C.2     1  LIG1        0.0000
      8 C8          0.3679   -2.9985    1.8847 C.3     1  LIG1        0.0000
      9 C9          1.5162   -2.7000    2.8348 C.3     1  LIG1        0.0000
     10 C10        -1.4242   -1.2087    1.4221 C.2     1  LIG1        0.0000
     11 C11        -1.0507   -0.8686   -0.0109 C.3     1  LIG1        0.0000
     12 N12         0.0969    0.0481   -0.0133 N.pl3   1  LIG1        0.0000
     13 C13         1.4071   -0.3124   -0.0293 C.2     1  LIG1        0.0000
     14 C14         1.9417   -1.6620   -0.0557 C.2     1  LIG1        0.0000
     15 C15         3.0369   -2.1216    0.6195 C.2     1  LIG1        0.0000
     16 C16         3.3218   -3.4921    0.3472 C.2     1  LIG1        0.0000
     17 C17         2.4275   -4.1237   -0.4863 C.2     1  LIG1        0.0000
     18 S18         1.2905   -2.9510   -0.9606 S.3     1  LIG1        0.0000
     19 C19         2.3348   -5.5546   -0.9895 C.3     1  LIG1        0.0000
     20 C20         2.9813   -6.4925    0.0201 C.3     1  LIG1        0.0000
     21 C21         4.4950   -6.5289   -0.1433 C.3     1  LIG1        0.0000
     22 C22         5.1650   -5.1630   -0.0703 C.3     1  LIG1        0.0000
     23 C23         4.5309   -4.2073    0.9338 C.3     1  LIG1        0.0000
     24 N24         2.0962    0.7986   -0.0261 N.2     1  LIG1        0.0000
     25 N25         1.2800    1.8369    0.0092 N.2     1  LIG1        0.0000
     26 C26         0.0401    1.4086    0.0104 C.2     1  LIG1        0.0000
     27 N27        -1.1148    2.1984    0.0321 N.pl3   1  LIG1        0.0000
     28 C28        -1.7302    2.6355   -1.2292 C.3     1  LIG1        0.0000
     29 C29        -1.7125    2.5911    1.3164 C.3     1  LIG1        0.0000
     30 C30        -3.1625    2.9920    1.0989 C.3     1  LIG1        0.0000
     31 C31        -0.9430    3.7674    1.8949 C.3     1  LIG1        0.0000
     32 C32        -1.5611    4.1735    3.2228 C.1     1  LIG1        0.0000
     33 N33        -2.0246    4.4780    4.2188 N.1     1  LIG1        0.0000
     34 H          -1.6715    1.8207    1.9526 H       1  LIG1        0.0000
     35 H          -5.4999    0.5897    1.4785 H       1  LIG1        0.0000
     36 H          -4.9424   -0.9196    1.1993 H       1  LIG1        0.0000
     37 H          -5.0734   -0.3679    2.7306 H       1  LIG1        0.0000
     38 H          -3.2278    0.6763    0.7709 H       1  LIG1        0.0000
     39 H          -3.3588    1.2280    2.3023 H       1  LIG1        0.0000
     40 H          -0.3752   -3.5030    4.3780 H       1  LIG1        0.0000
     41 H          -0.9357   -2.3318    5.3682 H       1  LIG1        0.0000
     42 H          -1.9466   -3.4921    4.8220 H       1  LIG1        0.0000
     43 H           0.6556   -2.8128    0.9452 H       1  LIG1        0.0000
     44 H           0.1065   -3.9600    1.9695 H       1  LIG1        0.0000
     45 H           2.2982   -3.2795    2.6049 H       1  LIG1        0.0000
     46 H           1.7776   -1.7385    2.7501 H       1  LIG1        0.0000
     47 H           1.2285   -2.8857    3.7743 H       1  LIG1        0.0000
     48 H          -0.8089   -1.7066   -0.5002 H       1  LIG1        0.0000
     49 H          -1.8279   -0.4310   -0.4630 H       1  LIG1        0.0000
     50 H           3.5814   -1.5565    1.2393 H       1  LIG1        0.0000
     51 H           2.8096   -5.6307   -1.8663 H       1  LIG1        0.0000
     52 H           1.3738   -5.8043   -1.1082 H       1  LIG1        0.0000
     53 H           2.6176   -7.4144   -0.1132 H       1  LIG1        0.0000
     54 H           2.7615   -6.1777    0.9435 H       1  LIG1        0.0000
     55 H           4.7045   -6.9336   -1.0334 H       1  LIG1        0.0000
     56 H           4.8748   -7.1034    0.5818 H       1  LIG1        0.0000
     57 H           6.1223   -5.2968    0.1858 H       1  LIG1        0.0000
     58 H           5.1179   -4.7421   -0.9762 H       1  LIG1        0.0000
     59 H           4.2411   -4.7274    1.7373 H       1  LIG1        0.0000
     60 H           5.2102   -3.5255    1.2053 H       1  LIG1        0.0000
     61 H          -2.5404    3.1873   -1.0312 H       1  LIG1        0.0000
     62 H          -1.0735    3.1821   -1.7488 H       1  LIG1        0.0000
     63 H          -1.9955    1.8344   -1.7658 H       1  LIG1        0.0000
     64 H          -3.5691    3.2592    1.9726 H       1  LIG1        0.0000
     65 H          -3.2035    3.7625    0.4627 H       1  LIG1        0.0000
     66 H          -3.6688    2.2182    0.7183 H       1  LIG1        0.0000
     67 H           0.0109    3.5037    2.0380 H       1  LIG1        0.0000
     68 H          -0.9840    4.5378    1.2587 H       1  LIG1        0.0000
@<TRIPOS>BOND
     1     1     2    1
     2     2     3    1
     3     3     4    2
     4     4     5    1
     5     5     6    1
     6     5     7    1
     7     7     8    1
     8     8     9    1
     9     7    10    2
    10    10     3    1
    11    10    11    1
    12    11    12    1
    13    12    13    1
    14    13    14    1
    15    14    15    2
    16    15    16    1
    17    16    17    2
    18    17    18    1
    19    18    14    1
    20    17    19    1
    21    19    20    1
    22    20    21    1
    23    21    22    1
    24    22    23    1
    25    23    16    1
    26    13    24    2
    27    24    25    1
    28    25    26    2
    29    26    12    1
    30    26    27    1
    31    27    28    1
    32    27    29    1
    33    29    30    1
    34    29    31    1
    35    31    32    1
    36    32    33    3
    37    29    34    1
    38     1    35    1
    39     1    36    1
    40     1    37    1
    41     2    38    1
    42     2    39    1
    43     6    40    1
    44     6    41    1
    45     6    42    1
    46     8    43    1
    47     8    44    1
    48     9    45    1
    49     9    46    1
    50     9    47    1
    51    11    48    1
    52    11    49    1
    53    15    50    1
    54    19    51    1
    55    19    52    1
    56    20    53    1
    57    20    54    1
    58    21    55    1
    59    21    56    1
    60    22    57    1
    61    22    58    1
    62    23    59    1
    63    23    60    1
    64    28    61    1
    65    28    62    1
    66    28    63    1
    67    30    64    1
    68    30    65    1
    69    30    66    1
    70    31    67    1
    71    31    68    1
