@<TRIPOS>MOLECULE
*****
 68 71 0 0 0
SMALL
USER_CHARGES

@<TRIPOS>ATOM
      1 C1         -2.8661   -4.1715    0.6171 C.3     1  LIG1        0.0000
      2 C2         -3.4370   -2.8026    0.9500 C.3     1  LIG1        0.0000
      3 C3         -2.4674   -2.0546    1.8497 C.2     1  LIG1        0.0000
      4 N4         -2.4537   -2.0855    3.1599 N.2     1  LIG1        0.0000
      5 N5         -1.4855   -1.3205    3.6045 N.pl3   1  LIG1        0.0000
      6 C6         -1.1589   -1.1045    5.0224 C.3     1  LIG1        0.0000
      7 C7         -0.8209   -0.7613    2.5559 C.2     1  LIG1        0.0000
      8 C8          0.3668    0.1836    2.6397 C.3     1  LIG1        0.0000
      9 C9          1.6561   -0.6215    2.6343 C.3     1  LIG1        0.0000
     10 C10        -1.4242   -1.2087    1.4221 C.2     1  LIG1        0.0000
     11 C11        -1.0507   -0.8686   -0.0109 C.3     1  LIG1        0.0000
     12 N12         0.0969    0.0481   -0.0133 N.pl3   1  LIG1        0.0000
     13 C13         1.4071   -0.3124   -0.0293 C.2     1  LIG1        0.0000
     14 C14         1.9417   -1.6620   -0.0557 C.2     1  LIG1        0.0000
     15 C15         1.2259   -2.8258   -0.0536 C.2     1  LIG1        0.0000
     16 C16         2.0542   -3.9865   -0.0436 C.2     1  LIG1        0.0000
     17 C17         3.4074   -3.7432   -0.0977 C.2     1  LIG1        0.0000
     18 S18         3.6000   -2.0533   -0.0880 S.3     1  LIG1        0.0000
     19 C19         4.6110   -4.6695   -0.1482 C.3     1  LIG1        0.0000
     20 C20         4.2112   -5.9895   -0.7924 C.3     1  LIG1        0.0000
     21 C21         3.5352   -6.9160    0.2095 C.3     1  LIG1        0.0000
     22 C22         2.3282   -6.3057    0.9101 C.3     1  LIG1        0.0000
     23 C23         1.4838   -5.3964    0.0249 C.3     1  LIG1        0.0000
     24 N24         2.0962    0.7986   -0.0261 N.2     1  LIG1        0.0000
     25 N25         1.2800    1.8369    0.0092 N.2     1  LIG1        0.0000
     26 C26         0.0401    1.4086    0.0104 C.2     1  LIG1        0.0000
     27 N27        -1.1148    2.1984    0.0321 N.pl3   1  LIG1        0.0000
     28 C28        -1.0489    3.6082   -0.3792 C.3     1  LIG1        0.0000
     29 C29        -2.3938    1.6185    0.4664 C.3     1  LIG1        0.0000
     30 C30        -3.3244    1.4916   -0.7287 C.3     1  LIG1        0.0000
     31 C31        -3.0306    2.5207    1.5109 C.3     1  LIG1        0.0000
     32 C32        -4.3532    1.9210    1.9599 C.1     1  LIG1        0.0000
     33 N33        -5.3451    1.4712    2.2967 N.1     1  LIG1        0.0000
     34 H          -2.2327    0.7138    0.8610 H       1  LIG1        0.0000
     35 H          -3.5041   -4.6637    0.0250 H       1  LIG1        0.0000
     36 H          -1.9908   -4.0620    0.1460 H       1  LIG1        0.0000
     37 H          -2.7277   -4.6892    1.4614 H       1  LIG1        0.0000
     38 H          -3.5753   -2.2849    0.1057 H       1  LIG1        0.0000
     39 H          -4.3122   -2.9121    1.4211 H       1  LIG1        0.0000
     40 H          -0.3809   -0.4802    5.0939 H       1  LIG1        0.0000
     41 H          -1.9489   -0.7074    5.4897 H       1  LIG1        0.0000
     42 H          -0.9249   -1.9788    5.4475 H       1  LIG1        0.0000
     43 H           0.3100    0.7163    3.4841 H       1  LIG1        0.0000
     44 H           0.3567    0.8021    1.8540 H       1  LIG1        0.0000
     45 H           2.4374    0.0001    2.6894 H       1  LIG1        0.0000
     46 H           1.6661   -1.2401    3.4200 H       1  LIG1        0.0000
     47 H           1.7128   -1.1542    1.7899 H       1  LIG1        0.0000
     48 H          -0.8089   -1.7066   -0.5002 H       1  LIG1        0.0000
     49 H          -1.8279   -0.4310   -0.4630 H       1  LIG1        0.0000
     50 H           0.2265   -2.8599   -0.0585 H       1  LIG1        0.0000
     51 H           4.9403   -4.8386    0.7807 H       1  LIG1        0.0000
     52 H           5.3374   -4.2427   -0.6868 H       1  LIG1        0.0000
     53 H           5.0304   -6.4385   -1.1491 H       1  LIG1        0.0000
     54 H           3.5777   -5.8057   -1.5441 H       1  LIG1        0.0000
     55 H           4.2071   -7.1686    0.9057 H       1  LIG1        0.0000
     56 H           3.2339   -7.7365   -0.2762 H       1  LIG1        0.0000
     57 H           1.7473   -7.0502    1.2391 H       1  LIG1        0.0000
     58 H           2.6556   -5.7696    1.6882 H       1  LIG1        0.0000
     59 H           1.4551   -5.7793   -0.8985 H       1  LIG1        0.0000
     60 H           0.5565   -5.3528    0.3966 H       1  LIG1        0.0000
     61 H          -1.9569    4.0203   -0.3032 H       1  LIG1        0.0000
     62 H          -0.4096    4.0987    0.2129 H       1  LIG1        0.0000
     63 H          -0.7356    3.6645   -1.3272 H       1  LIG1        0.0000
     64 H          -4.1945    1.0971   -0.4333 H       1  LIG1        0.0000
     65 H          -3.4855    2.3963   -1.1233 H       1  LIG1        0.0000
     66 H          -2.9055    0.8981   -1.4159 H       1  LIG1        0.0000
     67 H          -2.4184    2.6041    2.2971 H       1  LIG1        0.0000
     68 H          -3.1917    3.4253    1.1163 H       1  LIG1        0.0000
@<TRIPOS>BOND
     1     1     2    1
     2     2     3    1
     3     3     4    2
     4     4     5    1
     5     5     6    1
     6     5     7    1
     7     7     8    1
     8     8     9    1
     9     7    10    2
    10    10     3    1
    11    10    11    1
    12    11    12    1
    13    12    13    1
    14    13    14    1
    15    14    15    2
    16    15    16    1
    17    16    17    2
    18    17    18    1
    19    18    14    1
    20    17    19    1
    21    19    20    1
    22    20    21    1
    23    21    22    1
    24    22    23    1
    25    23    16    1
    26    13    24    2
    27    24    25    1
    28    25    26    2
    29    26    12    1
    30    26    27    1
    31    27    28    1
    32    27    29    1
    33    29    30    1
    34    29    31    1
    35    31    32    1
    36    32    33    3
    37    29    34    1
    38     1    35    1
    39     1    36    1
    40     1    37    1
    41     2    38    1
    42     2    39    1
    43     6    40    1
    44     6    41    1
    45     6    42    1
    46     8    43    1
    47     8    44    1
    48     9    45    1
    49     9    46    1
    50     9    47    1
    51    11    48    1
    52    11    49    1
    53    15    50    1
    54    19    51    1
    55    19    52    1
    56    20    53    1
    57    20    54    1
    58    21    55    1
    59    21    56    1
    60    22    57    1
    61    22    58    1
    62    23    59    1
    63    23    60    1
    64    28    61    1
    65    28    62    1
    66    28    63    1
    67    30    64    1
    68    30    65    1
    69    30    66    1
    70    31    67    1
    71    31    68    1
