@<TRIPOS>MOLECULE
*****
 68 71 0 0 0
SMALL
USER_CHARGES

@<TRIPOS>ATOM
      1 C1         -2.6596   -3.5558   -0.1172 C.3     1  LIG1        0.0000
      2 C2         -3.4370   -2.8026    0.9500 C.3     1  LIG1        0.0000
      3 C3         -2.4674   -2.0546    1.8497 C.2     1  LIG1        0.0000
      4 N4         -2.4537   -2.0855    3.1599 N.2     1  LIG1        0.0000
      5 N5         -1.4855   -1.3205    3.6045 N.pl3   1  LIG1        0.0000
      6 C6         -1.1589   -1.1045    5.0224 C.3     1  LIG1        0.0000
      7 C7         -0.8209   -0.7613    2.5559 C.2     1  LIG1        0.0000
      8 C8          0.3668    0.1836    2.6397 C.3     1  LIG1        0.0000
      9 C9          1.6561   -0.6215    2.6343 C.3     1  LIG1        0.0000
     10 C10        -1.4242   -1.2087    1.4221 C.2     1  LIG1        0.0000
     11 C11        -1.0507   -0.8686   -0.0109 C.3     1  LIG1        0.0000
     12 N12         0.0969    0.0481   -0.0133 N.pl3   1  LIG1        0.0000
     13 C13         1.4071   -0.3124   -0.0293 C.2     1  LIG1        0.0000
     14 C14         1.9412   -1.6606   -0.0557 C.2     1  LIG1        0.0000
     15 C15         3.0082   -2.1087   -0.7754 C.2     1  LIG1        0.0000
     16 C16         3.3071   -3.4867   -0.5756 C.2     1  LIG1        0.0000
     17 C17         2.4459   -4.1078    0.2935 C.2     1  LIG1        0.0000
     18 S18         1.3101   -2.9634    0.8406 S.3     1  LIG1        0.0000
     19 C19         2.2950   -5.5195    0.8502 C.3     1  LIG1        0.0000
     20 C20         3.6790   -6.1028    1.1296 C.3     1  LIG1        0.0000
     21 C21         4.4421   -6.5941   -0.0995 C.3     1  LIG1        0.0000
     22 C22         4.3072   -5.7610   -1.3745 C.3     1  LIG1        0.0000
     23 C23         4.4648   -4.2456   -1.2242 C.3     1  LIG1        0.0000
     24 N24         2.0962    0.7986   -0.0261 N.2     1  LIG1        0.0000
     25 N25         1.2800    1.8369    0.0092 N.2     1  LIG1        0.0000
     26 C26         0.0401    1.4086    0.0104 C.2     1  LIG1        0.0000
     27 N27        -1.1148    2.1984    0.0321 N.pl3   1  LIG1        0.0000
     28 C28        -2.3999    1.6336   -0.4043 C.3     1  LIG1        0.0000
     29 C29        -1.0429    3.5930    0.4914 C.3     1  LIG1        0.0000
     30 C30        -0.2859    4.4248   -0.5311 C.3     1  LIG1        0.0000
     31 C31        -0.3191    3.6500    1.8268 C.3     1  LIG1        0.0000
     32 C32        -0.6619    4.9511    2.5338 C.1     1  LIG1        0.0000
     33 N33        -0.9190    5.9270    3.0641 N.1     1  LIG1        0.0000
     34 H          -1.9682    3.9570    0.5980 H       1  LIG1        0.0000
     35 H          -3.2977   -4.0481   -0.7093 H       1  LIG1        0.0000
     36 H          -2.1301   -2.9072   -0.6640 H       1  LIG1        0.0000
     37 H          -2.0397   -4.2076    0.3196 H       1  LIG1        0.0000
     38 H          -4.0569   -2.1508    0.5131 H       1  LIG1        0.0000
     39 H          -3.9664   -3.4512    1.4968 H       1  LIG1        0.0000
     40 H          -0.3809   -0.4802    5.0939 H       1  LIG1        0.0000
     41 H          -1.9489   -0.7074    5.4897 H       1  LIG1        0.0000
     42 H          -0.9249   -1.9788    5.4475 H       1  LIG1        0.0000
     43 H           0.3100    0.7163    3.4841 H       1  LIG1        0.0000
     44 H           0.3567    0.8021    1.8540 H       1  LIG1        0.0000
     45 H           2.4374    0.0001    2.6894 H       1  LIG1        0.0000
     46 H           1.6661   -1.2401    3.4200 H       1  LIG1        0.0000
     47 H           1.7128   -1.1542    1.7899 H       1  LIG1        0.0000
     48 H          -0.8089   -1.7066   -0.5002 H       1  LIG1        0.0000
     49 H          -1.8279   -0.4310   -0.4630 H       1  LIG1        0.0000
     50 H           3.5351   -1.5214   -1.3898 H       1  LIG1        0.0000
     51 H           1.8195   -6.0926    0.1828 H       1  LIG1        0.0000
     52 H           1.7676   -5.4892    1.6993 H       1  LIG1        0.0000
     53 H           3.5678   -6.8763    1.7535 H       1  LIG1        0.0000
     54 H           4.2291   -5.3943    1.5716 H       1  LIG1        0.0000
     55 H           4.1195   -7.5178   -0.3064 H       1  LIG1        0.0000
     56 H           5.4125   -6.6258    0.1397 H       1  LIG1        0.0000
     57 H           5.0050   -6.0761   -2.0178 H       1  LIG1        0.0000
     58 H           3.3993   -5.9351   -1.7558 H       1  LIG1        0.0000
     59 H           5.2810   -4.0810   -0.6703 H       1  LIG1        0.0000
     60 H           4.6002   -3.8646   -2.1387 H       1  LIG1        0.0000
     61 H          -3.1139    2.3292   -0.3247 H       1  LIG1        0.0000
     62 H          -2.3276    1.3376   -1.3567 H       1  LIG1        0.0000
     63 H          -2.6323    0.8499    0.1717 H       1  LIG1        0.0000
     64 H          -0.2370    5.3735   -0.2186 H       1  LIG1        0.0000
     65 H           0.6394    4.0609   -0.6376 H       1  LIG1        0.0000
     66 H          -0.7621    4.3873   -1.4096 H       1  LIG1        0.0000
     67 H          -0.6044    2.8773    2.3939 H       1  LIG1        0.0000
     68 H           0.6680    3.6041    1.6732 H       1  LIG1        0.0000
@<TRIPOS>BOND
     1     1     2    1
     2     2     3    1
     3     3     4    2
     4     4     5    1
     5     5     6    1
     6     5     7    1
     7     7     8    1
     8     8     9    1
     9     7    10    2
    10    10     3    1
    11    10    11    1
    12    11    12    1
    13    12    13    1
    14    13    14    1
    15    14    15    2
    16    15    16    1
    17    16    17    2
    18    17    18    1
    19    18    14    1
    20    17    19    1
    21    19    20    1
    22    20    21    1
    23    21    22    1
    24    22    23    1
    25    23    16    1
    26    13    24    2
    27    24    25    1
    28    25    26    2
    29    26    12    1
    30    26    27    1
    31    27    28    1
    32    27    29    1
    33    29    30    1
    34    29    31    1
    35    31    32    1
    36    32    33    3
    37    29    34    1
    38     1    35    1
    39     1    36    1
    40     1    37    1
    41     2    38    1
    42     2    39    1
    43     6    40    1
    44     6    41    1
    45     6    42    1
    46     8    43    1
    47     8    44    1
    48     9    45    1
    49     9    46    1
    50     9    47    1
    51    11    48    1
    52    11    49    1
    53    15    50    1
    54    19    51    1
    55    19    52    1
    56    20    53    1
    57    20    54    1
    58    21    55    1
    59    21    56    1
    60    22    57    1
    61    22    58    1
    62    23    59    1
    63    23    60    1
    64    28    61    1
    65    28    62    1
    66    28    63    1
    67    30    64    1
    68    30    65    1
    69    30    66    1
    70    31    67    1
    71    31    68    1
