@<TRIPOS>MOLECULE
*****
 68 71 0 0 0
SMALL
USER_CHARGES

@<TRIPOS>ATOM
      1 C1         -2.8661   -4.1715    0.6171 C.3     1  LIG1        0.0000
      2 C2         -3.4370   -2.8026    0.9500 C.3     1  LIG1        0.0000
      3 C3         -2.4674   -2.0546    1.8497 C.2     1  LIG1        0.0000
      4 N4         -2.4537   -2.0855    3.1599 N.2     1  LIG1        0.0000
      5 N5         -1.4855   -1.3205    3.6045 N.pl3   1  LIG1        0.0000
      6 C6         -1.1589   -1.1045    5.0224 C.3     1  LIG1        0.0000
      7 C7         -0.8209   -0.7613    2.5559 C.2     1  LIG1        0.0000
      8 C8          0.3668    0.1836    2.6397 C.3     1  LIG1        0.0000
      9 C9         -0.1307    1.6185    2.7010 C.3     1  LIG1        0.0000
     10 C10        -1.4242   -1.2087    1.4221 C.2     1  LIG1        0.0000
     11 C11        -1.0507   -0.8686   -0.0109 C.3     1  LIG1        0.0000
     12 N12         0.0969    0.0481   -0.0133 N.pl3   1  LIG1        0.0000
     13 C13         1.4071   -0.3124   -0.0293 C.2     1  LIG1        0.0000
     14 C14         1.9417   -1.6620   -0.0557 C.2     1  LIG1        0.0000
     15 C15         3.2600   -2.0194   -0.0876 C.2     1  LIG1        0.0000
     16 C16         3.4507   -3.4313   -0.1480 C.2     1  LIG1        0.0000
     17 C17         2.2986   -4.1823   -0.1038 C.2     1  LIG1        0.0000
     18 S18         1.0013   -3.0832   -0.0589 S.3     1  LIG1        0.0000
     19 C19         2.0560   -5.6824   -0.1008 C.3     1  LIG1        0.0000
     20 C20         3.2596   -6.3918    0.5037 C.3     1  LIG1        0.0000
     21 C21         4.3731   -6.5698   -0.5199 C.3     1  LIG1        0.0000
     22 C22         4.8257   -5.2756   -1.1832 C.3     1  LIG1        0.0000
     23 C23         4.8306   -4.0653   -0.2565 C.3     1  LIG1        0.0000
     24 N24         2.0962    0.7986   -0.0261 N.2     1  LIG1        0.0000
     25 N25         1.2800    1.8369    0.0092 N.2     1  LIG1        0.0000
     26 C26         0.0401    1.4086    0.0104 C.2     1  LIG1        0.0000
     27 N27        -1.1148    2.1984    0.0321 N.pl3   1  LIG1        0.0000
     28 C28        -2.4402    1.5627    0.0303 C.3     1  LIG1        0.0000
     29 C29        -1.0026    3.6639    0.0569 C.3     1  LIG1        0.0000
     30 C30        -1.8747    4.2201    1.1706 C.3     1  LIG1        0.0000
     31 C31        -1.4620    4.2299   -1.2769 C.3     1  LIG1        0.0000
     32 C32        -1.3459    5.7452   -1.2513 C.1     1  LIG1        0.0000
     33 N33        -1.2589    6.8817   -1.2321 N.1     1  LIG1        0.0000
     34 H          -0.0502    3.9227    0.2185 H       1  LIG1        0.0000
     35 H          -3.5041   -4.6637    0.0250 H       1  LIG1        0.0000
     36 H          -1.9908   -4.0620    0.1460 H       1  LIG1        0.0000
     37 H          -2.7277   -4.6892    1.4614 H       1  LIG1        0.0000
     38 H          -3.5753   -2.2849    0.1057 H       1  LIG1        0.0000
     39 H          -4.3122   -2.9121    1.4211 H       1  LIG1        0.0000
     40 H          -0.3809   -0.4802    5.0939 H       1  LIG1        0.0000
     41 H          -1.9489   -0.7074    5.4897 H       1  LIG1        0.0000
     42 H          -0.9249   -1.9788    5.4475 H       1  LIG1        0.0000
     43 H           0.9445    0.0652    1.8321 H       1  LIG1        0.0000
     44 H           0.8978   -0.0206    3.4622 H       1  LIG1        0.0000
     45 H           0.6507    2.2401    2.7561 H       1  LIG1        0.0000
     46 H          -0.6617    1.8227    1.8786 H       1  LIG1        0.0000
     47 H          -0.7084    1.7368    3.5086 H       1  LIG1        0.0000
     48 H          -0.8089   -1.7066   -0.5002 H       1  LIG1        0.0000
     49 H          -1.8279   -0.4310   -0.4630 H       1  LIG1        0.0000
     50 H           4.0119   -1.3604   -0.0704 H       1  LIG1        0.0000
     51 H           1.9193   -5.9995   -1.0393 H       1  LIG1        0.0000
     52 H           1.2416   -5.8870    0.4421 H       1  LIG1        0.0000
     53 H           2.9746   -7.2916    0.8339 H       1  LIG1        0.0000
     54 H           3.6056   -5.8498    1.2695 H       1  LIG1        0.0000
     55 H           4.0469   -7.1902   -1.2332 H       1  LIG1        0.0000
     56 H           5.1609   -6.9776   -0.0582 H       1  LIG1        0.0000
     57 H           5.7543   -5.4089   -1.5294 H       1  LIG1        0.0000
     58 H           4.2097   -5.0828   -1.9470 H       1  LIG1        0.0000
     59 H           5.1260   -4.3557    0.6537 H       1  LIG1        0.0000
     60 H           5.4717   -3.3863   -0.6141 H       1  LIG1        0.0000
     61 H          -3.1484    2.2685    0.0475 H       1  LIG1        0.0000
     62 H          -2.5426    1.0078   -0.7953 H       1  LIG1        0.0000
     63 H          -2.5312    0.9794    0.8374 H       1  LIG1        0.0000
     64 H          -1.7984    5.2171    1.1875 H       1  LIG1        0.0000
     65 H          -2.8271    3.9614    1.0090 H       1  LIG1        0.0000
     66 H          -1.5725    3.8478    2.0482 H       1  LIG1        0.0000
     67 H          -0.8882    3.8640   -2.0097 H       1  LIG1        0.0000
     68 H          -2.4143    3.9712   -1.4386 H       1  LIG1        0.0000
@<TRIPOS>BOND
     1     1     2    1
     2     2     3    1
     3     3     4    2
     4     4     5    1
     5     5     6    1
     6     5     7    1
     7     7     8    1
     8     8     9    1
     9     7    10    2
    10    10     3    1
    11    10    11    1
    12    11    12    1
    13    12    13    1
    14    13    14    1
    15    14    15    2
    16    15    16    1
    17    16    17    2
    18    17    18    1
    19    18    14    1
    20    17    19    1
    21    19    20    1
    22    20    21    1
    23    21    22    1
    24    22    23    1
    25    23    16    1
    26    13    24    2
    27    24    25    1
    28    25    26    2
    29    26    12    1
    30    26    27    1
    31    27    28    1
    32    27    29    1
    33    29    30    1
    34    29    31    1
    35    31    32    1
    36    32    33    3
    37    29    34    1
    38     1    35    1
    39     1    36    1
    40     1    37    1
    41     2    38    1
    42     2    39    1
    43     6    40    1
    44     6    41    1
    45     6    42    1
    46     8    43    1
    47     8    44    1
    48     9    45    1
    49     9    46    1
    50     9    47    1
    51    11    48    1
    52    11    49    1
    53    15    50    1
    54    19    51    1
    55    19    52    1
    56    20    53    1
    57    20    54    1
    58    21    55    1
    59    21    56    1
    60    22    57    1
    61    22    58    1
    62    23    59    1
    63    23    60    1
    64    28    61    1
    65    28    62    1
    66    28    63    1
    67    30    64    1
    68    30    65    1
    69    30    66    1
    70    31    67    1
    71    31    68    1
