@<TRIPOS>MOLECULE

  27   29
SMALL
USER_CHARGES
@<TRIPOS>ATOM
   1 C1           3.7074    -0.7506    -0.0340 C.3          1    LIG   0.0000
   2 C2           2.4001     0.0252    -0.0185 C.ar         1    LIG   0.0000
   3 C3           1.2066    -0.6900    -0.0111 C.ar         1    LIG   0.0000
   4 C4          -0.0097    -0.0142     0.0035 C.ar         1    LIG   0.0000
   5 C5          -0.0170     1.3770     0.0098 C.ar         1    LIG   0.0000
   6 O6          -1.1948     2.0371     0.0243 O.3          1    LIG   0.0000
   7 C7           1.1720     2.0993     0.0020 C.ar         1    LIG   0.0000
   8 C8           2.3843     1.4176    -0.0126 C.ar         1    LIG   0.0000
   9 C9           3.6133     2.1895    -0.0204 C.2          1    LIG   0.0000
  10 C10          3.4898     3.6036    -0.0128 C.2          1    LIG   0.0000
  11 C11          4.6362     4.3525    -0.0216 C.2          1    LIG   0.0000
  12 C12          5.8872     3.6828    -0.0378 C.2          1    LIG   0.0000
  13 N13          7.1232     4.1219    -0.0518 N.2          1    LIG   0.0000
  14 N14          7.9640     3.1115    -0.0607 N.2          1    LIG   0.0000
  15 C15          7.2635     1.9994    -0.0551 C.2          1    LIG   0.0000
  16 N16          5.9387     2.3308    -0.0430 N.pl3        1    LIG   0.0000
  17 N17          4.8142     1.6288    -0.0343 N.2          1    LIG   0.0000
  18 H            3.5128    -1.7315    -0.0363 H            1    LIG   0.0000
  19 H            4.2269    -0.5119    -0.8545 H            1    LIG   0.0000
  20 H            4.2422    -0.5187     0.7784 H            1    LIG   0.0000
  21 H            1.2229    -1.6899    -0.0162 H            1    LIG   0.0000
  22 H           -0.8702    -0.5236     0.0093 H            1    LIG   0.0000
  23 H           -2.0544     1.5261     0.0300 H            1    LIG   0.0000
  24 H            1.1552     3.0992     0.0068 H            1    LIG   0.0000
  25 H            2.5905     4.0407    -0.0015 H            1    LIG   0.0000
  26 H            4.5926     5.3515    -0.0167 H            1    LIG   0.0000
  27 H            7.6361     1.0714    -0.0589 H            1    LIG   0.0000
@<TRIPOS>BOND
   1        1        2 1
   2        2        3 ar
   3        3        4 ar
   4        4        5 ar
   5        5        6 1
   6        5        7 ar
   7        7        8 ar
   8        8        2 ar
   9        8        9 1
  10        9       10 1
  11       10       11 2
  12       11       12 1
  13       12       13 2
  14       13       14 1
  15       14       15 2
  16       15       16 1
  17       16       12 1
  18       16       17 1
  19       17        9 2
  20        1       18 1
  21        1       19 1
  22        1       20 1
  23        3       21 1
  24        4       22 1
  25        6       23 1
  26        7       24 1
  27       10       25 1
  28       11       26 1
  29       15       27 1

@<TRIPOS>MOLECULE

  27   29
SMALL
USER_CHARGES
@<TRIPOS>ATOM
   1 C1           3.7074    -0.7506    -0.0340 C.3          1    LIG   0.0000
   2 C2           2.4001     0.0252    -0.0185 C.ar         1    LIG   0.0000
   3 C3           1.2066    -0.6900    -0.0111 C.ar         1    LIG   0.0000
   4 C4          -0.0097    -0.0142     0.0035 C.ar         1    LIG   0.0000
   5 C5          -0.0170     1.3770     0.0098 C.ar         1    LIG   0.0000
   6 O6          -1.1948     2.0371     0.0243 O.3          1    LIG   0.0000
   7 C7           1.1720     2.0993     0.0020 C.ar         1    LIG   0.0000
   8 C8           2.3843     1.4176    -0.0126 C.ar         1    LIG   0.0000
   9 C9           3.6133     2.1895    -0.0204 C.2          1    LIG   0.0000
  10 C10          3.5343     3.5371     0.4185 C.2          1    LIG   0.0000
  11 C11          4.6812     4.2852     0.4182 C.2          1    LIG   0.0000
  12 C12          5.8885     3.6809    -0.0188 C.2          1    LIG   0.0000
  13 N13          7.1136     4.1364    -0.1301 N.2          1    LIG   0.0000
  14 N14          7.9092     3.1936    -0.5840 N.2          1    LIG   0.0000
  15 C15          7.1894     2.1101    -0.7730 C.2          1    LIG   0.0000
  16 N16          5.8990     2.3901    -0.4244 N.pl3        1    LIG   0.0000
  17 N17          4.7750     1.6875    -0.4145 N.2          1    LIG   0.0000
  18 H            3.5128    -1.7315    -0.0363 H            1    LIG   0.0000
  19 H            4.2269    -0.5119    -0.8545 H            1    LIG   0.0000
  20 H            4.2422    -0.5187     0.7784 H            1    LIG   0.0000
  21 H            1.2229    -1.6899    -0.0162 H            1    LIG   0.0000
  22 H           -0.8702    -0.5236     0.0093 H            1    LIG   0.0000
  23 H           -2.0544     1.5261     0.0300 H            1    LIG   0.0000
  24 H            1.1552     3.0992     0.0068 H            1    LIG   0.0000
  25 H            2.6651     3.9293     0.7196 H            1    LIG   0.0000
  26 H            4.6682     5.2385     0.7199 H            1    LIG   0.0000
  27 H            7.5280     1.2328    -1.1131 H            1    LIG   0.0000
@<TRIPOS>BOND
   1        1        2 1
   2        2        3 ar
   3        3        4 ar
   4        4        5 ar
   5        5        6 1
   6        5        7 ar
   7        7        8 ar
   8        8        2 ar
   9        8        9 1
  10        9       10 1
  11       10       11 2
  12       11       12 1
  13       12       13 2
  14       13       14 1
  15       14       15 2
  16       15       16 1
  17       16       12 1
  18       16       17 1
  19       17        9 2
  20        1       18 1
  21        1       19 1
  22        1       20 1
  23        3       21 1
  24        4       22 1
  25        6       23 1
  26        7       24 1
  27       10       25 1
  28       11       26 1
  29       15       27 1

@<TRIPOS>MOLECULE

  27   29
SMALL
USER_CHARGES
@<TRIPOS>ATOM
   1 C1           3.7074    -0.7506    -0.0340 C.3          1    LIG   0.0000
   2 C2           2.4001     0.0252    -0.0185 C.ar         1    LIG   0.0000
   3 C3           1.2066    -0.6900    -0.0111 C.ar         1    LIG   0.0000
   4 C4          -0.0097    -0.0142     0.0035 C.ar         1    LIG   0.0000
   5 C5          -0.0170     1.3770     0.0098 C.ar         1    LIG   0.0000
   6 O6          -1.1948     2.0371     0.0243 O.3          1    LIG   0.0000
   7 C7           1.1720     2.0993     0.0020 C.ar         1    LIG   0.0000
   8 C8           2.3843     1.4176    -0.0126 C.ar         1    LIG   0.0000
   9 C9           3.6133     2.1895    -0.0204 C.2          1    LIG   0.0000
  10 C10          3.5264     3.5410    -0.4455 C.2          1    LIG   0.0000
  11 C11          4.6737     4.2882    -0.4626 C.2          1    LIG   0.0000
  12 C12          5.8894     3.6791    -0.0565 C.2          1    LIG   0.0000
  13 N13          7.1180     4.1310     0.0276 N.2          1    LIG   0.0000
  14 N14          7.9205     3.1861     0.4648 N.2          1    LIG   0.0000
  15 C15          7.2027     2.1034     0.6652 C.2          1    LIG   0.0000
  16 N16          5.9067     2.3855     0.3398 N.pl3        1    LIG   0.0000
  17 N17          4.7821     1.6839     0.3472 N.2          1    LIG   0.0000
  18 H            3.5128    -1.7315    -0.0363 H            1    LIG   0.0000
  19 H            4.2269    -0.5119    -0.8545 H            1    LIG   0.0000
  20 H            4.2422    -0.5187     0.7784 H            1    LIG   0.0000
  21 H            1.2229    -1.6899    -0.0162 H            1    LIG   0.0000
  22 H           -0.8702    -0.5236     0.0093 H            1    LIG   0.0000
  23 H           -2.0544     1.5261     0.0300 H            1    LIG   0.0000
  24 H            1.1552     3.0992     0.0068 H            1    LIG   0.0000
  25 H            2.6514     3.9365    -0.7249 H            1    LIG   0.0000
  26 H            4.6554     5.2442    -0.7554 H            1    LIG   0.0000
  27 H            7.5462     1.2252     0.9982 H            1    LIG   0.0000
@<TRIPOS>BOND
   1        1        2 1
   2        2        3 ar
   3        3        4 ar
   4        4        5 ar
   5        5        6 1
   6        5        7 ar
   7        7        8 ar
   8        8        2 ar
   9        8        9 1
  10        9       10 1
  11       10       11 2
  12       11       12 1
  13       12       13 2
  14       13       14 1
  15       14       15 2
  16       15       16 1
  17       16       12 1
  18       16       17 1
  19       17        9 2
  20        1       18 1
  21        1       19 1
  22        1       20 1
  23        3       21 1
  24        4       22 1
  25        6       23 1
  26        7       24 1
  27       10       25 1
  28       11       26 1
  29       15       27 1

@<TRIPOS>MOLECULE

  27   29
SMALL
USER_CHARGES
@<TRIPOS>ATOM
   1 C1           3.7074    -0.7506    -0.0340 C.3          1    LIG   0.0000
   2 C2           2.4001     0.0252    -0.0185 C.ar         1    LIG   0.0000
   3 C3           1.2066    -0.6900    -0.0111 C.ar         1    LIG   0.0000
   4 C4          -0.0097    -0.0142     0.0035 C.ar         1    LIG   0.0000
   5 C5          -0.0170     1.3770     0.0098 C.ar         1    LIG   0.0000
   6 O6          -1.1948     2.0371     0.0243 O.3          1    LIG   0.0000
   7 C7           1.1720     2.0993     0.0020 C.ar         1    LIG   0.0000
   8 C8           2.3843     1.4176    -0.0126 C.ar         1    LIG   0.0000
   9 C9           3.6133     2.1895    -0.0204 C.2          1    LIG   0.0000
  10 C10          4.1731     2.5282     1.2393 C.2          1    LIG   0.0000
  11 C11          5.3318     3.2577     1.2564 C.2          1    LIG   0.0000
  12 C12          5.9152     3.6388     0.0202 C.2          1    LIG   0.0000
  13 N13          6.9943     4.3250    -0.2722 N.2          1    LIG   0.0000
  14 N14          7.1320     4.4209    -1.5759 N.2          1    LIG   0.0000
  15 C15          6.1258     3.7897    -2.1388 C.2          1    LIG   0.0000
  16 N16          5.3332     3.2836    -1.1485 N.pl3        1    LIG   0.0000
  17 N17          4.2116     2.5772    -1.1378 N.2          1    LIG   0.0000
  18 H            3.5128    -1.7315    -0.0363 H            1    LIG   0.0000
  19 H            4.2269    -0.5119    -0.8545 H            1    LIG   0.0000
  20 H            4.2422    -0.5187     0.7784 H            1    LIG   0.0000
  21 H            1.2229    -1.6899    -0.0162 H            1    LIG   0.0000
  22 H           -0.8702    -0.5236     0.0093 H            1    LIG   0.0000
  23 H           -2.0544     1.5261     0.0300 H            1    LIG   0.0000
  24 H            1.1552     3.0992     0.0068 H            1    LIG   0.0000
  25 H            3.7335     2.2420     2.0906 H            1    LIG   0.0000
  26 H            5.7585     3.5168     2.1229 H            1    LIG   0.0000
  27 H            5.9681     3.6963    -3.1219 H            1    LIG   0.0000
@<TRIPOS>BOND
   1        1        2 1
   2        2        3 ar
   3        3        4 ar
   4        4        5 ar
   5        5        6 1
   6        5        7 ar
   7        7        8 ar
   8        8        2 ar
   9        8        9 1
  10        9       10 1
  11       10       11 2
  12       11       12 1
  13       12       13 2
  14       13       14 1
  15       14       15 2
  16       15       16 1
  17       16       12 1
  18       16       17 1
  19       17        9 2
  20        1       18 1
  21        1       19 1
  22        1       20 1
  23        3       21 1
  24        4       22 1
  25        6       23 1
  26        7       24 1
  27       10       25 1
  28       11       26 1
  29       15       27 1

@<TRIPOS>MOLECULE

  27   29
SMALL
USER_CHARGES
@<TRIPOS>ATOM
   1 C1           3.7074    -0.7506    -0.0340 C.3          1    LIG   0.0000
   2 C2           2.4001     0.0252    -0.0185 C.ar         1    LIG   0.0000
   3 C3           1.2066    -0.6900    -0.0111 C.ar         1    LIG   0.0000
   4 C4          -0.0097    -0.0142     0.0035 C.ar         1    LIG   0.0000
   5 C5          -0.0170     1.3770     0.0098 C.ar         1    LIG   0.0000
   6 O6          -1.1948     2.0371     0.0243 O.3          1    LIG   0.0000
   7 C7           1.1720     2.0993     0.0020 C.ar         1    LIG   0.0000
   8 C8           2.3843     1.4176    -0.0126 C.ar         1    LIG   0.0000
   9 C9           3.6133     2.1895    -0.0204 C.2          1    LIG   0.0000
  10 C10          4.1500     2.5396    -1.2869 C.2          1    LIG   0.0000
  11 C11          5.3101     3.2665    -1.3187 C.2          1    LIG   0.0000
  12 C12          5.9178     3.6335    -0.0900 C.2          1    LIG   0.0000
  13 N13          7.0071     4.3092     0.1888 N.2          1    LIG   0.0000
  14 N14          7.1651     4.3991     1.4906 N.2          1    LIG   0.0000
  15 C15          6.1648     3.7700     2.0662 C.2          1    LIG   0.0000
  16 N16          5.3558     3.2702     1.0859 N.pl3        1    LIG   0.0000
  17 N17          4.2324     2.5665     1.0893 N.2          1    LIG   0.0000
  18 H            3.5128    -1.7315    -0.0363 H            1    LIG   0.0000
  19 H            4.2269    -0.5119    -0.8545 H            1    LIG   0.0000
  20 H            4.2422    -0.5187     0.7784 H            1    LIG   0.0000
  21 H            1.2229    -1.6899    -0.0162 H            1    LIG   0.0000
  22 H           -0.8702    -0.5236     0.0093 H            1    LIG   0.0000
  23 H           -2.0544     1.5261     0.0300 H            1    LIG   0.0000
  24 H            1.1552     3.0992     0.0068 H            1    LIG   0.0000
  25 H            3.6936     2.2630    -2.1326 H            1    LIG   0.0000
  26 H            5.7208     3.5334    -2.1905 H            1    LIG   0.0000
  27 H            6.0210     3.6740     3.0511 H            1    LIG   0.0000
@<TRIPOS>BOND
   1        1        2 1
   2        2        3 ar
   3        3        4 ar
   4        4        5 ar
   5        5        6 1
   6        5        7 ar
   7        7        8 ar
   8        8        2 ar
   9        8        9 1
  10        9       10 1
  11       10       11 2
  12       11       12 1
  13       12       13 2
  14       13       14 1
  15       14       15 2
  16       15       16 1
  17       16       12 1
  18       16       17 1
  19       17        9 2
  20        1       18 1
  21        1       19 1
  22        1       20 1
  23        3       21 1
  24        4       22 1
  25        6       23 1
  26        7       24 1
  27       10       25 1
  28       11       26 1
  29       15       27 1

@<TRIPOS>MOLECULE

  27   29
SMALL
USER_CHARGES
@<TRIPOS>ATOM
   1 C1           3.7074    -0.7506    -0.0340 C.3          1    LIG   0.0000
   2 C2           2.4001     0.0252    -0.0185 C.ar         1    LIG   0.0000
   3 C3           1.2066    -0.6900    -0.0111 C.ar         1    LIG   0.0000
   4 C4          -0.0097    -0.0142     0.0035 C.ar         1    LIG   0.0000
   5 C5          -0.0170     1.3770     0.0098 C.ar         1    LIG   0.0000
   6 O6          -1.1948     2.0371     0.0243 O.3          1    LIG   0.0000
   7 C7           1.1720     2.0993     0.0020 C.ar         1    LIG   0.0000
   8 C8           2.3843     1.4176    -0.0126 C.ar         1    LIG   0.0000
   9 C9           3.6133     2.1895    -0.0204 C.2          1    LIG   0.0000
  10 C10          4.5075     1.9941     1.0646 C.2          1    LIG   0.0000
  11 C11          5.6728     2.7131     1.0792 C.2          1    LIG   0.0000
  12 C12          5.9300     3.6151     0.0143 C.2          1    LIG   0.0000
  13 N13          6.9338     4.4216    -0.2363 N.2          1    LIG   0.0000
  14 N14          6.7265     5.0687    -1.3615 N.2          1    LIG   0.0000
  15 C15          5.5693     4.6787    -1.8478 C.2          1    LIG   0.0000
  16 N16          5.0377     3.7558    -0.9930 N.pl3        1    LIG   0.0000
  17 N17          3.9169     3.0480    -0.9835 N.2          1    LIG   0.0000
  18 H            3.5128    -1.7315    -0.0363 H            1    LIG   0.0000
  19 H            4.2269    -0.5119    -0.8545 H            1    LIG   0.0000
  20 H            4.2422    -0.5187     0.7784 H            1    LIG   0.0000
  21 H            1.2229    -1.6899    -0.0162 H            1    LIG   0.0000
  22 H           -0.8702    -0.5236     0.0093 H            1    LIG   0.0000
  23 H           -2.0544     1.5261     0.0300 H            1    LIG   0.0000
  24 H            1.1552     3.0992     0.0068 H            1    LIG   0.0000
  25 H            4.2924     1.3493     1.7980 H            1    LIG   0.0000
  26 H            6.3295     2.6047     1.8255 H            1    LIG   0.0000
  27 H            5.1508     5.0017    -2.6966 H            1    LIG   0.0000
@<TRIPOS>BOND
   1        1        2 1
   2        2        3 ar
   3        3        4 ar
   4        4        5 ar
   5        5        6 1
   6        5        7 ar
   7        7        8 ar
   8        8        2 ar
   9        8        9 1
  10        9       10 1
  11       10       11 2
  12       11       12 1
  13       12       13 2
  14       13       14 1
  15       14       15 2
  16       15       16 1
  17       16       12 1
  18       16       17 1
  19       17        9 2
  20        1       18 1
  21        1       19 1
  22        1       20 1
  23        3       21 1
  24        4       22 1
  25        6       23 1
  26        7       24 1
  27       10       25 1
  28       11       26 1
  29       15       27 1

@<TRIPOS>MOLECULE

  27   29
SMALL
USER_CHARGES
@<TRIPOS>ATOM
   1 C1           3.7074    -0.7506    -0.0340 C.3          1    LIG   0.0000
   2 C2           2.4001     0.0252    -0.0185 C.ar         1    LIG   0.0000
   3 C3           1.2066    -0.6900    -0.0111 C.ar         1    LIG   0.0000
   4 C4          -0.0097    -0.0142     0.0035 C.ar         1    LIG   0.0000
   5 C5          -0.0170     1.3770     0.0098 C.ar         1    LIG   0.0000
   6 O6          -1.1948     2.0371     0.0243 O.3          1    LIG   0.0000
   7 C7           1.1720     2.0993     0.0020 C.ar         1    LIG   0.0000
   8 C8           2.3843     1.4176    -0.0126 C.ar         1    LIG   0.0000
   9 C9           3.6133     2.1895    -0.0204 C.2          1    LIG   0.0000
  10 C10          4.2896     2.3425     1.2182 C.2          1    LIG   0.0000
  11 C11          5.4506     3.0684     1.2352 C.2          1    LIG   0.0000
  12 C12          5.9203     3.6307     0.0198 C.2          1    LIG   0.0000
  13 N13          6.9731     4.3588    -0.2670 N.2          1    LIG   0.0000
  14 N14          6.9907     4.6462    -1.5495 N.2          1    LIG   0.0000
  15 C15          5.9320     4.0988    -2.1036 C.2          1    LIG   0.0000
  16 N16          5.2302     3.4478    -1.1295 N.pl3        1    LIG   0.0000
  17 N17          4.1089     2.7409    -1.1191 N.2          1    LIG   0.0000
  18 H            3.5128    -1.7315    -0.0363 H            1    LIG   0.0000
  19 H            4.2269    -0.5119    -0.8545 H            1    LIG   0.0000
  20 H            4.2422    -0.5187     0.7784 H            1    LIG   0.0000
  21 H            1.2229    -1.6899    -0.0162 H            1    LIG   0.0000
  22 H           -0.8702    -0.5236     0.0093 H            1    LIG   0.0000
  23 H           -2.0544     1.5261     0.0300 H            1    LIG   0.0000
  24 H            1.1552     3.0992     0.0068 H            1    LIG   0.0000
  25 H            3.9282     1.9316     2.0552 H            1    LIG   0.0000
  26 H            5.9574     3.1998     2.0872 H            1    LIG   0.0000
  27 H            5.6834     4.1500    -3.0709 H            1    LIG   0.0000
@<TRIPOS>BOND
   1        1        2 1
   2        2        3 ar
   3        3        4 ar
   4        4        5 ar
   5        5        6 1
   6        5        7 ar
   7        7        8 ar
   8        8        2 ar
   9        8        9 1
  10        9       10 1
  11       10       11 2
  12       11       12 1
  13       12       13 2
  14       13       14 1
  15       14       15 2
  16       15       16 1
  17       16       12 1
  18       16       17 1
  19       17        9 2
  20        1       18 1
  21        1       19 1
  22        1       20 1
  23        3       21 1
  24        4       22 1
  25        6       23 1
  26        7       24 1
  27       10       25 1
  28       11       26 1
  29       15       27 1

@<TRIPOS>MOLECULE

  27   29
SMALL
USER_CHARGES
@<TRIPOS>ATOM
   1 C1           3.7074    -0.7506    -0.0340 C.3          1    LIG   0.0000
   2 C2           2.4001     0.0252    -0.0185 C.ar         1    LIG   0.0000
   3 C3           1.2066    -0.6900    -0.0111 C.ar         1    LIG   0.0000
   4 C4          -0.0097    -0.0142     0.0035 C.ar         1    LIG   0.0000
   5 C5          -0.0170     1.3770     0.0098 C.ar         1    LIG   0.0000
   6 O6          -1.1948     2.0371     0.0243 O.3          1    LIG   0.0000
   7 C7           1.1720     2.0993     0.0020 C.ar         1    LIG   0.0000
   8 C8           2.3843     1.4176    -0.0126 C.ar         1    LIG   0.0000
   9 C9           3.6133     2.1895    -0.0204 C.2          1    LIG   0.0000
  10 C10          4.4875     2.0040    -1.1232 C.2          1    LIG   0.0000
  11 C11          5.6539     2.7207    -1.1510 C.2          1    LIG   0.0000
  12 C12          5.9323     3.6106    -0.0811 C.2          1    LIG   0.0000
  13 N13          6.9450     4.4079     0.1629 N.2          1    LIG   0.0000
  14 N14          6.7552     5.0498     1.2942 N.2          1    LIG   0.0000
  15 C15          5.6031     4.6616     1.7938 C.2          1    LIG   0.0000
  16 N16          5.0572     3.7441     0.9421 N.pl3        1    LIG   0.0000
  17 N17          3.9349     3.0387     0.9452 N.2          1    LIG   0.0000
  18 H            3.5128    -1.7315    -0.0363 H            1    LIG   0.0000
  19 H            4.2269    -0.5119    -0.8545 H            1    LIG   0.0000
  20 H            4.2422    -0.5187     0.7784 H            1    LIG   0.0000
  21 H            1.2229    -1.6899    -0.0162 H            1    LIG   0.0000
  22 H           -0.8702    -0.5236     0.0093 H            1    LIG   0.0000
  23 H           -2.0544     1.5261     0.0300 H            1    LIG   0.0000
  24 H            1.1552     3.0992     0.0068 H            1    LIG   0.0000
  25 H            4.2578     1.3675    -1.8595 H            1    LIG   0.0000
  26 H            6.2969     2.6191    -1.9101 H            1    LIG   0.0000
  27 H            5.1967     4.9824     2.6494 H            1    LIG   0.0000
@<TRIPOS>BOND
   1        1        2 1
   2        2        3 ar
   3        3        4 ar
   4        4        5 ar
   5        5        6 1
   6        5        7 ar
   7        7        8 ar
   8        8        2 ar
   9        8        9 1
  10        9       10 1
  11       10       11 2
  12       11       12 1
  13       12       13 2
  14       13       14 1
  15       14       15 2
  16       15       16 1
  17       16       12 1
  18       16       17 1
  19       17        9 2
  20        1       18 1
  21        1       19 1
  22        1       20 1
  23        3       21 1
  24        4       22 1
  25        6       23 1
  26        7       24 1
  27       10       25 1
  28       11       26 1
  29       15       27 1

@<TRIPOS>MOLECULE

  27   29
SMALL
USER_CHARGES
@<TRIPOS>ATOM
   1 C1           3.7074    -0.7506    -0.0340 C.3          1    LIG   0.0000
   2 C2           2.4001     0.0252    -0.0185 C.ar         1    LIG   0.0000
   3 C3           1.2066    -0.6900    -0.0111 C.ar         1    LIG   0.0000
   4 C4          -0.0097    -0.0142     0.0035 C.ar         1    LIG   0.0000
   5 C5          -0.0170     1.3770     0.0098 C.ar         1    LIG   0.0000
   6 O6          -1.1948     2.0371     0.0243 O.3          1    LIG   0.0000
   7 C7           1.1720     2.0993     0.0020 C.ar         1    LIG   0.0000
   8 C8           2.3843     1.4176    -0.0126 C.ar         1    LIG   0.0000
   9 C9           3.6133     2.1895    -0.0204 C.2          1    LIG   0.0000
  10 C10          4.2668     2.3538    -1.2696 C.2          1    LIG   0.0000
  11 C11          5.4292     3.0771    -1.3008 C.2          1    LIG   0.0000
  12 C12          5.9229     3.6255    -0.0886 C.2          1    LIG   0.0000
  13 N13          6.9857     4.3433     0.1870 N.2          1    LIG   0.0000
  14 N14          7.0232     4.6247     1.4704 N.2          1    LIG   0.0000
  15 C15          5.9703     4.0793     2.0375 C.2          1    LIG   0.0000
  16 N16          5.2525     3.4346     1.0710 N.pl3        1    LIG   0.0000
  17 N17          4.1294     2.7303     1.0742 N.2          1    LIG   0.0000
  18 H            3.5128    -1.7315    -0.0363 H            1    LIG   0.0000
  19 H            4.2269    -0.5119    -0.8545 H            1    LIG   0.0000
  20 H            4.2422    -0.5187     0.7784 H            1    LIG   0.0000
  21 H            1.2229    -1.6899    -0.0162 H            1    LIG   0.0000
  22 H           -0.8702    -0.5236     0.0093 H            1    LIG   0.0000
  23 H           -2.0544     1.5261     0.0300 H            1    LIG   0.0000
  24 H            1.1552     3.0992     0.0068 H            1    LIG   0.0000
  25 H            3.8889     1.9524    -2.1039 H            1    LIG   0.0000
  26 H            5.9203     3.2161    -2.1607 H            1    LIG   0.0000
  27 H            5.7356     4.1281     3.0083 H            1    LIG   0.0000
@<TRIPOS>BOND
   1        1        2 1
   2        2        3 ar
   3        3        4 ar
   4        4        5 ar
   5        5        6 1
   6        5        7 ar
   7        7        8 ar
   8        8        2 ar
   9        8        9 1
  10        9       10 1
  11       10       11 2
  12       11       12 1
  13       12       13 2
  14       13       14 1
  15       14       15 2
  16       15       16 1
  17       16       12 1
  18       16       17 1
  19       17        9 2
  20        1       18 1
  21        1       19 1
  22        1       20 1
  23        3       21 1
  24        4       22 1
  25        6       23 1
  26        7       24 1
  27       10       25 1
  28       11       26 1
  29       15       27 1

