@<TRIPOS>MOLECULE
*****
 27 29 0 0 0
SMALL
USER_CHARGES

@<TRIPOS>ATOM
      1 C1          3.7074   -0.7506   -0.0340 C.3     1  LIG1        0.0000
      2 C2          2.4001    0.0252   -0.0185 C.ar    1  LIG1        0.0000
      3 C3          1.2066   -0.6900   -0.0111 C.ar    1  LIG1        0.0000
      4 C4         -0.0097   -0.0142    0.0035 C.ar    1  LIG1        0.0000
      5 C5         -0.0170    1.3770    0.0098 C.ar    1  LIG1        0.0000
      6 O6         -1.1948    2.0371    0.0243 O.3     1  LIG1        0.0000
      7 C7          1.1720    2.0993    0.0020 C.ar    1  LIG1        0.0000
      8 C8          2.3843    1.4176   -0.0126 C.ar    1  LIG1        0.0000
      9 C9          3.6133    2.1895   -0.0204 C.2     1  LIG1        0.0000
     10 C10         4.1731    2.5282    1.2393 C.2     1  LIG1        0.0000
     11 C11         5.3318    3.2577    1.2564 C.2     1  LIG1        0.0000
     12 C12         5.9152    3.6388    0.0202 C.2     1  LIG1        0.0000
     13 N13         6.9943    4.3250   -0.2722 N.2     1  LIG1        0.0000
     14 N14         7.1320    4.4209   -1.5759 N.2     1  LIG1        0.0000
     15 C15         6.1258    3.7897   -2.1388 C.2     1  LIG1        0.0000
     16 N16         5.3332    3.2836   -1.1485 N.pl3   1  LIG1        0.0000
     17 N17         4.2116    2.5772   -1.1378 N.2     1  LIG1        0.0000
     18 H           3.5128   -1.7315   -0.0363 H       1  LIG1        0.0000
     19 H           4.2269   -0.5119   -0.8545 H       1  LIG1        0.0000
     20 H           4.2422   -0.5187    0.7784 H       1  LIG1        0.0000
     21 H           1.2229   -1.6899   -0.0162 H       1  LIG1        0.0000
     22 H          -0.8702   -0.5236    0.0093 H       1  LIG1        0.0000
     23 H          -2.0544    1.5261    0.0300 H       1  LIG1        0.0000
     24 H           1.1552    3.0992    0.0068 H       1  LIG1        0.0000
     25 H           3.7335    2.2420    2.0906 H       1  LIG1        0.0000
     26 H           5.7585    3.5168    2.1229 H       1  LIG1        0.0000
     27 H           5.9681    3.6963   -3.1219 H       1  LIG1        0.0000
@<TRIPOS>BOND
     1     1     2    1
     2     2     3   ar
     3     3     4   ar
     4     4     5   ar
     5     5     6    1
     6     5     7   ar
     7     7     8   ar
     8     8     2   ar
     9     8     9    1
    10     9    10    1
    11    10    11    2
    12    11    12    1
    13    12    13    2
    14    13    14    1
    15    14    15    2
    16    15    16    1
    17    16    12    1
    18    16    17    1
    19    17     9    2
    20     1    18    1
    21     1    19    1
    22     1    20    1
    23     3    21    1
    24     4    22    1
    25     6    23    1
    26     7    24    1
    27    10    25    1
    28    11    26    1
    29    15    27    1
