@<TRIPOS>MOLECULE

  54   58
SMALL
USER_CHARGES
@<TRIPOS>ATOM
   1 C1           3.1857    -7.8165    -0.2030 C.3          1    LIG   0.0000
   2 C2           2.4773    -6.4723    -0.1620 C.3          1    LIG   0.0000
   3 O3           3.4405    -5.4290    -0.1745 O.3          1    LIG   0.0000
   4 C4           2.9400    -4.1755    -0.1410 C.ar         1    LIG   0.0000
   5 C5           3.8111    -3.0912    -0.1502 C.ar         1    LIG   0.0000
   6 C6           3.2895    -1.8024    -0.1160 C.ar         1    LIG   0.0000
   7 C7           1.9117    -1.6108    -0.0720 C.ar         1    LIG   0.0000
   8 C8           1.3773    -0.2627    -0.0370 C.2          1    LIG   0.0000
   9 N9           2.0781     0.8449    -0.0424 N.2          1    LIG   0.0000
  10 O10          1.2672     1.8158    -0.0083 O.2          1    LIG   0.0000
  11 C11          0.0319     1.3792     0.0236 C.2          1    LIG   0.0000
  12 C12         -1.2175     2.2433     0.0709 C.3          1    LIG   0.0000
  13 N13         -1.5803     2.5070     1.4769 N.3          1    LIG   0.0000
  14 C14         -2.7184     3.4131     1.6482 C.3          1    LIG   0.0000
  15 C15         -3.8803     2.5239     1.2383 C.3          1    LIG   0.0000
  16 C16         -3.4636     1.1116     1.6066 C.3          1    LIG   0.0000
  17 C17         -2.0817     1.3201     2.1807 C.3          1    LIG   0.0000
  18 C18         -2.4891     1.5544     3.6251 C.ar         1    LIG   0.0000
  19 C19         -2.5403     0.4863     4.5129 C.ar         1    LIG   0.0000
  20 N20         -2.9539     0.7301     5.7624 N.ar         1    LIG   0.0000
  21 C21         -3.3209     1.9531     6.1750 C.ar         1    LIG   0.0000
  22 C22         -3.8131     2.1553     7.5988 C.3          1    LIG   0.0000
  23 C23         -3.7868     0.8270     8.3374 C.3          1    LIG   0.0000
  24 N24         -3.2515     2.9837     5.3193 N.ar         1    LIG   0.0000
  25 C25         -2.8212     2.8296     4.0589 C.ar         1    LIG   0.0000
  26 C26         -2.7036     3.9740     3.0618 C.3          1    LIG   0.0000
  27 N27          0.0607     0.0692     0.0083 N.2          1    LIG   0.0000
  28 C28          1.0487    -2.7013    -0.0625 C.ar         1    LIG   0.0000
  29 C29          1.5619    -3.9940    -0.0978 C.ar         1    LIG   0.0000
  30 H           -2.6375     4.1669     0.9962 H            1    LIG   0.0000
  31 H           -1.4894     0.5223     2.0682 H            1    LIG   0.0000
  32 H            2.5074    -8.5512    -0.1942 H            1    LIG   0.0000
  33 H            3.7340    -7.8790    -1.0369 H            1    LIG   0.0000
  34 H            3.7818    -7.9036     0.5952 H            1    LIG   0.0000
  35 H            1.8812    -6.3852    -0.9602 H            1    LIG   0.0000
  36 H            1.9289    -6.4098     0.6719 H            1    LIG   0.0000
  37 H            4.8000    -3.2365    -0.1810 H            1    LIG   0.0000
  38 H            3.9042    -1.0137    -0.1229 H            1    LIG   0.0000
  39 H           -1.0413     3.1099    -0.3960 H            1    LIG   0.0000
  40 H           -1.9699     1.7667    -0.3838 H            1    LIG   0.0000
  41 H           -4.0434     2.5943     0.2543 H            1    LIG   0.0000
  42 H           -4.7097     2.7833     1.7331 H            1    LIG   0.0000
  43 H           -4.0821     0.7176     2.2865 H            1    LIG   0.0000
  44 H           -3.4350     0.5209     0.8002 H            1    LIG   0.0000
  45 H           -2.2764    -0.4350     4.2274 H            1    LIG   0.0000
  46 H           -4.7485     2.5083     7.5811 H            1    LIG   0.0000
  47 H           -3.2188     2.8090     8.0673 H            1    LIG   0.0000
  48 H           -4.1106     0.9600     9.2741 H            1    LIG   0.0000
  49 H           -4.3810     0.1733     7.8689 H            1    LIG   0.0000
  50 H           -2.8513     0.4739     8.3551 H            1    LIG   0.0000
  51 H           -1.8467     4.4655     3.2171 H            1    LIG   0.0000
  52 H           -3.4736     4.6009     3.1805 H            1    LIG   0.0000
  53 H            0.0598    -2.5564    -0.0302 H            1    LIG   0.0000
  54 H            0.9474    -4.7828    -0.0922 H            1    LIG   0.0000
@<TRIPOS>BOND
   1        1        2 1
   2        2        3 1
   3        3        4 1
   4        4        5 ar
   5        5        6 ar
   6        6        7 ar
   7        7        8 1
   8        8        9 2
   9        9       10 1
  10       10       11 1
  11       11       12 1
  12       12       13 1
  13       13       14 1
  14       14       15 1
  15       15       16 1
  16       16       17 1
  17       17       13 1
  18       17       18 1
  19       18       19 ar
  20       19       20 ar
  21       20       21 ar
  22       21       22 1
  23       22       23 1
  24       21       24 ar
  25       24       25 ar
  26       25       18 ar
  27       25       26 1
  28       26       14 1
  29       11       27 2
  30       27        8 1
  31        7       28 ar
  32       28       29 ar
  33       29        4 ar
  34       14       30 1
  35       17       31 1
  36        1       32 1
  37        1       33 1
  38        1       34 1
  39        2       35 1
  40        2       36 1
  41        5       37 1
  42        6       38 1
  43       12       39 1
  44       12       40 1
  45       15       41 1
  46       15       42 1
  47       16       43 1
  48       16       44 1
  49       19       45 1
  50       22       46 1
  51       22       47 1
  52       23       48 1
  53       23       49 1
  54       23       50 1
  55       26       51 1
  56       26       52 1
  57       28       53 1
  58       29       54 1

@<TRIPOS>MOLECULE

  54   58
SMALL
USER_CHARGES
@<TRIPOS>ATOM
   1 C1           3.1857    -7.8165    -0.2030 C.3          1    LIG   0.0000
   2 C2           2.4773    -6.4723    -0.1620 C.3          1    LIG   0.0000
   3 O3           3.4405    -5.4290    -0.1745 O.3          1    LIG   0.0000
   4 C4           2.9400    -4.1755    -0.1410 C.ar         1    LIG   0.0000
   5 C5           3.8111    -3.0912    -0.1502 C.ar         1    LIG   0.0000
   6 C6           3.2895    -1.8024    -0.1160 C.ar         1    LIG   0.0000
   7 C7           1.9117    -1.6108    -0.0720 C.ar         1    LIG   0.0000
   8 C8           1.3773    -0.2627    -0.0370 C.2          1    LIG   0.0000
   9 N9           2.0781     0.8449    -0.0424 N.2          1    LIG   0.0000
  10 O10          1.2672     1.8158    -0.0083 O.2          1    LIG   0.0000
  11 C11          0.0319     1.3792     0.0236 C.2          1    LIG   0.0000
  12 C12         -1.2175     2.2433     0.0709 C.3          1    LIG   0.0000
  13 N13         -1.5803     2.5070     1.4769 N.3          1    LIG   0.0000
  14 C14         -0.5132     3.1187     2.2724 C.3          1    LIG   0.0000
  15 C15         -0.5052     4.5384     1.7314 C.3          1    LIG   0.0000
  16 C16         -1.9344     4.8214     1.3055 C.3          1    LIG   0.0000
  17 C17         -2.6323     3.5202     1.6260 C.3          1    LIG   0.0000
  18 C18         -3.0186     3.8386     3.0601 C.ar         1    LIG   0.0000
  19 C19         -4.2578     4.4047     3.3349 C.ar         1    LIG   0.0000
  20 N20         -4.5357     4.7161     4.6067 N.ar         1    LIG   0.0000
  21 C21         -3.6658     4.5076     5.6069 C.ar         1    LIG   0.0000
  22 C22         -4.0313     4.9151     7.0249 C.3          1    LIG   0.0000
  23 C23         -5.4242     5.5235     7.0341 C.3          1    LIG   0.0000
  24 N24         -2.4788     3.9435     5.3387 N.ar         1    LIG   0.0000
  25 C25         -2.1341     3.5763     4.0962 C.ar         1    LIG   0.0000
  26 C26         -0.8089     2.9118     3.7500 C.3          1    LIG   0.0000
  27 N27          0.0607     0.0692     0.0083 N.2          1    LIG   0.0000
  28 C28          1.0487    -2.7013    -0.0625 C.ar         1    LIG   0.0000
  29 C29          1.5619    -3.9940    -0.0978 C.ar         1    LIG   0.0000
  30 H            0.3559     2.6781     2.0478 H            1    LIG   0.0000
  31 H           -3.4235     3.3485     1.0391 H            1    LIG   0.0000
  32 H            2.5074    -8.5512    -0.1942 H            1    LIG   0.0000
  33 H            3.7340    -7.8790    -1.0369 H            1    LIG   0.0000
  34 H            3.7818    -7.9036     0.5952 H            1    LIG   0.0000
  35 H            1.8812    -6.3852    -0.9602 H            1    LIG   0.0000
  36 H            1.9289    -6.4098     0.6719 H            1    LIG   0.0000
  37 H            4.8000    -3.2365    -0.1810 H            1    LIG   0.0000
  38 H            3.9042    -1.0137    -0.1229 H            1    LIG   0.0000
  39 H           -1.0413     3.1099    -0.3960 H            1    LIG   0.0000
  40 H           -1.9699     1.7667    -0.3838 H            1    LIG   0.0000
  41 H            0.1129     4.6102     0.9487 H            1    LIG   0.0000
  42 H           -0.2192     5.1811     2.4422 H            1    LIG   0.0000
  43 H           -2.3244     5.5794     1.8283 H            1    LIG   0.0000
  44 H           -1.9864     5.0287     0.3286 H            1    LIG   0.0000
  45 H           -4.9208     4.5741     2.6056 H            1    LIG   0.0000
  46 H           -3.3714     5.5882     7.3589 H            1    LIG   0.0000
  47 H           -4.0153     4.1100     7.6177 H            1    LIG   0.0000
  48 H           -5.6647     5.7916     7.9670 H            1    LIG   0.0000
  49 H           -5.4402     6.3287     6.4412 H            1    LIG   0.0000
  50 H           -6.0841     4.8505     6.7001 H            1    LIG   0.0000
  51 H           -0.8651     1.9327     3.9454 H            1    LIG   0.0000
  52 H           -0.0778     3.3195     4.2971 H            1    LIG   0.0000
  53 H            0.0598    -2.5564    -0.0302 H            1    LIG   0.0000
  54 H            0.9474    -4.7828    -0.0922 H            1    LIG   0.0000
@<TRIPOS>BOND
   1        1        2 1
   2        2        3 1
   3        3        4 1
   4        4        5 ar
   5        5        6 ar
   6        6        7 ar
   7        7        8 1
   8        8        9 2
   9        9       10 1
  10       10       11 1
  11       11       12 1
  12       12       13 1
  13       13       14 1
  14       14       15 1
  15       15       16 1
  16       16       17 1
  17       17       13 1
  18       17       18 1
  19       18       19 ar
  20       19       20 ar
  21       20       21 ar
  22       21       22 1
  23       22       23 1
  24       21       24 ar
  25       24       25 ar
  26       25       18 ar
  27       25       26 1
  28       26       14 1
  29       11       27 2
  30       27        8 1
  31        7       28 ar
  32       28       29 ar
  33       29        4 ar
  34       14       30 1
  35       17       31 1
  36        1       32 1
  37        1       33 1
  38        1       34 1
  39        2       35 1
  40        2       36 1
  41        5       37 1
  42        6       38 1
  43       12       39 1
  44       12       40 1
  45       15       41 1
  46       15       42 1
  47       16       43 1
  48       16       44 1
  49       19       45 1
  50       22       46 1
  51       22       47 1
  52       23       48 1
  53       23       49 1
  54       23       50 1
  55       26       51 1
  56       26       52 1
  57       28       53 1
  58       29       54 1

@<TRIPOS>MOLECULE

  54   58
SMALL
USER_CHARGES
@<TRIPOS>ATOM
   1 C1           3.1857    -7.8165    -0.2030 C.3          1    LIG   0.0000
   2 C2           2.4773    -6.4723    -0.1620 C.3          1    LIG   0.0000
   3 O3           3.4405    -5.4290    -0.1745 O.3          1    LIG   0.0000
   4 C4           2.9400    -4.1755    -0.1410 C.ar         1    LIG   0.0000
   5 C5           3.8111    -3.0912    -0.1502 C.ar         1    LIG   0.0000
   6 C6           3.2895    -1.8024    -0.1160 C.ar         1    LIG   0.0000
   7 C7           1.9117    -1.6108    -0.0720 C.ar         1    LIG   0.0000
   8 C8           1.3773    -0.2627    -0.0370 C.2          1    LIG   0.0000
   9 N9           2.0781     0.8449    -0.0424 N.2          1    LIG   0.0000
  10 O10          1.2672     1.8158    -0.0083 O.2          1    LIG   0.0000
  11 C11          0.0319     1.3792     0.0236 C.2          1    LIG   0.0000
  12 C12         -1.2175     2.2433     0.0709 C.3          1    LIG   0.0000
  13 N13         -1.5798     2.5066     1.4749 N.3          1    LIG   0.0000
  14 C14         -1.5426     1.3129     2.3195 C.3          1    LIG   0.0000
  15 C15         -0.0690     1.1204     2.6420 C.3          1    LIG   0.0000
  16 C16          0.5500     2.4890     2.3769 C.3          1    LIG   0.0000
  17 C17         -0.6494     3.4022     2.1723 C.3          1    LIG   0.0000
  18 C18         -0.9063     3.6355     3.6522 C.ar         1    LIG   0.0000
  19 C19         -0.3877     4.7286     4.3316 C.ar         1    LIG   0.0000
  20 N20         -0.6279     4.8274     5.6471 N.ar         1    LIG   0.0000
  21 C21         -1.3384     3.9126     6.3253 C.ar         1    LIG   0.0000
  22 C22         -1.5600     4.0665     7.8208 C.3          1    LIG   0.0000
  23 C23         -0.8750     5.3334     8.3067 C.3          1    LIG   0.0000
  24 N24         -1.8508     2.8636     5.6647 N.ar         1    LIG   0.0000
  25 C25         -1.6687     2.7119     4.3476 C.ar         1    LIG   0.0000
  26 C26         -2.2876     1.5238     3.6239 C.3          1    LIG   0.0000
  27 N27          0.0607     0.0692     0.0083 N.2          1    LIG   0.0000
  28 C28          1.0487    -2.7013    -0.0625 C.ar         1    LIG   0.0000
  29 C29          1.5619    -3.9940    -0.0978 C.ar         1    LIG   0.0000
  30 H           -1.9045     0.5203     1.8289 H            1    LIG   0.0000
  31 H           -0.4374     4.2370     1.6643 H            1    LIG   0.0000
  32 H            2.5074    -8.5512    -0.1942 H            1    LIG   0.0000
  33 H            3.7340    -7.8790    -1.0369 H            1    LIG   0.0000
  34 H            3.7818    -7.9036     0.5952 H            1    LIG   0.0000
  35 H            1.8812    -6.3852    -0.9602 H            1    LIG   0.0000
  36 H            1.9289    -6.4098     0.6719 H            1    LIG   0.0000
  37 H            4.8000    -3.2365    -0.1810 H            1    LIG   0.0000
  38 H            3.9042    -1.0137    -0.1229 H            1    LIG   0.0000
  39 H           -1.0413     3.1099    -0.3960 H            1    LIG   0.0000
  40 H           -1.9699     1.7667    -0.3838 H            1    LIG   0.0000
  41 H            0.3368     0.4259     2.0479 H            1    LIG   0.0000
  42 H            0.0536     0.8542     3.5980 H            1    LIG   0.0000
  43 H            1.0962     2.7895     3.1588 H            1    LIG   0.0000
  44 H            1.1237     2.4670     1.5582 H            1    LIG   0.0000
  45 H            0.1500     5.4232     3.8536 H            1    LIG   0.0000
  46 H           -1.1758     3.2759     8.2977 H            1    LIG   0.0000
  47 H           -2.5405     4.1247     8.0082 H            1    LIG   0.0000
  48 H           -1.0208     5.4346     9.2909 H            1    LIG   0.0000
  49 H            0.1055     5.2751     8.1193 H            1    LIG   0.0000
  50 H           -1.2592     6.1239     7.8298 H            1    LIG   0.0000
  51 H           -3.2521     1.7089     3.4353 H            1    LIG   0.0000
  52 H           -2.2104     0.7049     4.1926 H            1    LIG   0.0000
  53 H            0.0598    -2.5564    -0.0302 H            1    LIG   0.0000
  54 H            0.9474    -4.7828    -0.0922 H            1    LIG   0.0000
@<TRIPOS>BOND
   1        1        2 1
   2        2        3 1
   3        3        4 1
   4        4        5 ar
   5        5        6 ar
   6        6        7 ar
   7        7        8 1
   8        8        9 2
   9        9       10 1
  10       10       11 1
  11       11       12 1
  12       12       13 1
  13       13       14 1
  14       14       15 1
  15       15       16 1
  16       16       17 1
  17       17       13 1
  18       17       18 1
  19       18       19 ar
  20       19       20 ar
  21       20       21 ar
  22       21       22 1
  23       22       23 1
  24       21       24 ar
  25       24       25 ar
  26       25       18 ar
  27       25       26 1
  28       26       14 1
  29       11       27 2
  30       27        8 1
  31        7       28 ar
  32       28       29 ar
  33       29        4 ar
  34       14       30 1
  35       17       31 1
  36        1       32 1
  37        1       33 1
  38        1       34 1
  39        2       35 1
  40        2       36 1
  41        5       37 1
  42        6       38 1
  43       12       39 1
  44       12       40 1
  45       15       41 1
  46       15       42 1
  47       16       43 1
  48       16       44 1
  49       19       45 1
  50       22       46 1
  51       22       47 1
  52       23       48 1
  53       23       49 1
  54       23       50 1
  55       26       51 1
  56       26       52 1
  57       28       53 1
  58       29       54 1

@<TRIPOS>MOLECULE

  54   58
SMALL
USER_CHARGES
@<TRIPOS>ATOM
   1 C1           3.1857    -7.8165    -0.2030 C.3          1    LIG   0.0000
   2 C2           2.4773    -6.4723    -0.1620 C.3          1    LIG   0.0000
   3 O3           3.4405    -5.4290    -0.1745 O.3          1    LIG   0.0000
   4 C4           2.9400    -4.1755    -0.1410 C.ar         1    LIG   0.0000
   5 C5           3.8111    -3.0912    -0.1502 C.ar         1    LIG   0.0000
   6 C6           3.2895    -1.8024    -0.1160 C.ar         1    LIG   0.0000
   7 C7           1.9117    -1.6108    -0.0720 C.ar         1    LIG   0.0000
   8 C8           1.3773    -0.2627    -0.0370 C.2          1    LIG   0.0000
   9 N9           2.0781     0.8449    -0.0424 N.2          1    LIG   0.0000
  10 O10          1.2672     1.8158    -0.0083 O.2          1    LIG   0.0000
  11 C11          0.0319     1.3792     0.0236 C.2          1    LIG   0.0000
  12 C12         -1.2175     2.2433     0.0709 C.3          1    LIG   0.0000
  13 N13         -1.6635     2.5391    -1.3045 N.3          1    LIG   0.0000
  14 C14         -2.9193     3.2888    -1.3851 C.3          1    LIG   0.0000
  15 C15         -2.4755     4.6747    -0.9481 C.3          1    LIG   0.0000
  16 C16         -1.0276     4.7974    -1.3870 C.3          1    LIG   0.0000
  17 C17         -0.7663     3.4521    -2.0233 C.3          1    LIG   0.0000
  18 C18         -1.2024     3.8013    -3.4358 C.ar         1    LIG   0.0000
  19 C19         -0.2673     4.2581    -4.3571 C.ar         1    LIG   0.0000
  20 N20         -0.7046     4.6029    -5.5743 N.ar         1    LIG   0.0000
  21 C21         -1.9979     4.5282    -5.9240 C.ar         1    LIG   0.0000
  22 C22         -2.4328     4.9673    -7.3127 C.3          1    LIG   0.0000
  23 C23         -1.2197     5.4383    -8.0982 C.3          1    LIG   0.0000
  24 N24         -2.8931     4.0688    -5.0370 N.ar         1    LIG   0.0000
  25 C25         -2.5333     3.6765    -3.8066 C.ar         1    LIG   0.0000
  26 C26         -3.5107     3.1267    -2.7769 C.3          1    LIG   0.0000
  27 N27          0.0607     0.0692     0.0083 N.2          1    LIG   0.0000
  28 C28          1.0487    -2.7013    -0.0625 C.ar         1    LIG   0.0000
  29 C29          1.5619    -3.9940    -0.0978 C.ar         1    LIG   0.0000
  30 H           -3.5621     2.9236    -0.7118 H            1    LIG   0.0000
  31 H            0.1935     3.1765    -1.9696 H            1    LIG   0.0000
  32 H            2.5074    -8.5512    -0.1942 H            1    LIG   0.0000
  33 H            3.7340    -7.8790    -1.0369 H            1    LIG   0.0000
  34 H            3.7818    -7.9036     0.5952 H            1    LIG   0.0000
  35 H            1.8812    -6.3852    -0.9602 H            1    LIG   0.0000
  36 H            1.9289    -6.4098     0.6719 H            1    LIG   0.0000
  37 H            4.8000    -3.2365    -0.1810 H            1    LIG   0.0000
  38 H            3.9042    -1.0137    -0.1229 H            1    LIG   0.0000
  39 H           -1.9417     1.7558     0.5586 H            1    LIG   0.0000
  40 H           -1.0131     3.0990     0.5463 H            1    LIG   0.0000
  41 H           -2.5483     4.7674     0.0449 H            1    LIG   0.0000
  42 H           -3.0349     5.3758    -1.3902 H            1    LIG   0.0000
  43 H           -0.9116     5.5388    -2.0479 H            1    LIG   0.0000
  44 H           -0.4242     4.9508    -0.6045 H            1    LIG   0.0000
  45 H            0.7013     4.3270    -4.1182 H            1    LIG   0.0000
  46 H           -3.0907     5.7163    -7.2347 H            1    LIG   0.0000
  47 H           -2.8590     4.1973    -7.7875 H            1    LIG   0.0000
  48 H           -1.5058     5.7271    -9.0119 H            1    LIG   0.0000
  49 H           -0.7935     6.2083    -7.6234 H            1    LIG   0.0000
  50 H           -0.5618     4.6893    -8.1762 H            1    LIG   0.0000
  51 H           -3.6769     2.1575    -2.9584 H            1    LIG   0.0000
  52 H           -4.3734     3.6292    -2.8338 H            1    LIG   0.0000
  53 H            0.0598    -2.5564    -0.0302 H            1    LIG   0.0000
  54 H            0.9474    -4.7828    -0.0922 H            1    LIG   0.0000
@<TRIPOS>BOND
   1        1        2 1
   2        2        3 1
   3        3        4 1
   4        4        5 ar
   5        5        6 ar
   6        6        7 ar
   7        7        8 1
   8        8        9 2
   9        9       10 1
  10       10       11 1
  11       11       12 1
  12       12       13 1
  13       13       14 1
  14       14       15 1
  15       15       16 1
  16       16       17 1
  17       17       13 1
  18       17       18 1
  19       18       19 ar
  20       19       20 ar
  21       20       21 ar
  22       21       22 1
  23       22       23 1
  24       21       24 ar
  25       24       25 ar
  26       25       18 ar
  27       25       26 1
  28       26       14 1
  29       11       27 2
  30       27        8 1
  31        7       28 ar
  32       28       29 ar
  33       29        4 ar
  34       14       30 1
  35       17       31 1
  36        1       32 1
  37        1       33 1
  38        1       34 1
  39        2       35 1
  40        2       36 1
  41        5       37 1
  42        6       38 1
  43       12       39 1
  44       12       40 1
  45       15       41 1
  46       15       42 1
  47       16       43 1
  48       16       44 1
  49       19       45 1
  50       22       46 1
  51       22       47 1
  52       23       48 1
  53       23       49 1
  54       23       50 1
  55       26       51 1
  56       26       52 1
  57       28       53 1
  58       29       54 1

@<TRIPOS>MOLECULE

  54   58
SMALL
USER_CHARGES
@<TRIPOS>ATOM
   1 C1           3.1857    -7.8165    -0.2030 C.3          1    LIG   0.0000
   2 C2           2.4773    -6.4723    -0.1620 C.3          1    LIG   0.0000
   3 O3           3.4405    -5.4290    -0.1745 O.3          1    LIG   0.0000
   4 C4           2.9400    -4.1755    -0.1410 C.ar         1    LIG   0.0000
   5 C5           3.8111    -3.0912    -0.1502 C.ar         1    LIG   0.0000
   6 C6           3.2895    -1.8024    -0.1160 C.ar         1    LIG   0.0000
   7 C7           1.9117    -1.6108    -0.0720 C.ar         1    LIG   0.0000
   8 C8           1.3773    -0.2627    -0.0370 C.2          1    LIG   0.0000
   9 N9           2.0781     0.8449    -0.0424 N.2          1    LIG   0.0000
  10 O10          1.2672     1.8158    -0.0083 O.2          1    LIG   0.0000
  11 C11          0.0319     1.3792     0.0236 C.2          1    LIG   0.0000
  12 C12         -1.2175     2.2433     0.0709 C.3          1    LIG   0.0000
  13 N13         -1.6635     2.5391    -1.3045 N.3          1    LIG   0.0000
  14 C14         -1.9009     1.3536    -2.1314 C.3          1    LIG   0.0000
  15 C15         -3.1976     0.8251    -1.5417 C.3          1    LIG   0.0000
  16 C16         -3.9426     2.0460    -1.0334 C.3          1    LIG   0.0000
  17 C17         -2.9880     3.1696    -1.3636 C.3          1    LIG   0.0000
  18 C18         -3.4948     3.4690    -2.7639 C.ar         1    LIG   0.0000
  19 C19         -4.4736     4.4370    -2.9547 C.ar         1    LIG   0.0000
  20 N20         -4.9275     4.6318    -4.1988 N.ar         1    LIG   0.0000
  21 C21         -4.4780     3.9277    -5.2489 C.ar         1    LIG   0.0000
  22 C22         -5.0600     4.1755    -6.6310 C.3          1    LIG   0.0000
  23 C23         -6.1188     5.2629    -6.5474 C.3          1    LIG   0.0000
  24 N24         -3.5198     3.0079    -5.0619 N.ar         1    LIG   0.0000
  25 C25         -2.9918     2.7715    -3.8525 C.ar         1    LIG   0.0000
  26 C26         -1.8870     1.7553    -3.5983 C.3          1    LIG   0.0000
  27 N27          0.0607     0.0692     0.0083 N.2          1    LIG   0.0000
  28 C28          1.0487    -2.7013    -0.0625 C.ar         1    LIG   0.0000
  29 C29          1.5619    -3.9940    -0.0978 C.ar         1    LIG   0.0000
  30 H           -1.1720     0.6889    -1.9674 H            1    LIG   0.0000
  31 H           -3.0755     3.9492    -0.7434 H            1    LIG   0.0000
  32 H            2.5074    -8.5512    -0.1942 H            1    LIG   0.0000
  33 H            3.7340    -7.8790    -1.0369 H            1    LIG   0.0000
  34 H            3.7818    -7.9036     0.5952 H            1    LIG   0.0000
  35 H            1.8812    -6.3852    -0.9602 H            1    LIG   0.0000
  36 H            1.9289    -6.4098     0.6719 H            1    LIG   0.0000
  37 H            4.8000    -3.2365    -0.1810 H            1    LIG   0.0000
  38 H            3.9042    -1.0137    -0.1229 H            1    LIG   0.0000
  39 H           -1.9417     1.7558     0.5586 H            1    LIG   0.0000
  40 H           -1.0131     3.0990     0.5463 H            1    LIG   0.0000
  41 H           -3.0073     0.1942    -0.7895 H            1    LIG   0.0000
  42 H           -3.7342     0.3557    -2.2429 H            1    LIG   0.0000
  43 H           -4.8150     2.1612    -1.5084 H            1    LIG   0.0000
  44 H           -4.1047     1.9868    -0.0484 H            1    LIG   0.0000
  45 H           -4.8276     4.9711    -2.1869 H            1    LIG   0.0000
  46 H           -5.4743     3.3326    -6.9743 H            1    LIG   0.0000
  47 H           -4.3321     4.4662    -7.2521 H            1    LIG   0.0000
  48 H           -6.5017     5.4260    -7.4567 H            1    LIG   0.0000
  49 H           -6.8467     4.9723    -5.9264 H            1    LIG   0.0000
  50 H           -5.7045     6.1058    -6.2041 H            1    LIG   0.0000
  51 H           -1.0015     2.1608    -3.8252 H            1    LIG   0.0000
  52 H           -2.0392     0.9472    -4.1674 H            1    LIG   0.0000
  53 H            0.0598    -2.5564    -0.0302 H            1    LIG   0.0000
  54 H            0.9474    -4.7828    -0.0922 H            1    LIG   0.0000
@<TRIPOS>BOND
   1        1        2 1
   2        2        3 1
   3        3        4 1
   4        4        5 ar
   5        5        6 ar
   6        6        7 ar
   7        7        8 1
   8        8        9 2
   9        9       10 1
  10       10       11 1
  11       11       12 1
  12       12       13 1
  13       13       14 1
  14       14       15 1
  15       15       16 1
  16       16       17 1
  17       17       13 1
  18       17       18 1
  19       18       19 ar
  20       19       20 ar
  21       20       21 ar
  22       21       22 1
  23       22       23 1
  24       21       24 ar
  25       24       25 ar
  26       25       18 ar
  27       25       26 1
  28       26       14 1
  29       11       27 2
  30       27        8 1
  31        7       28 ar
  32       28       29 ar
  33       29        4 ar
  34       14       30 1
  35       17       31 1
  36        1       32 1
  37        1       33 1
  38        1       34 1
  39        2       35 1
  40        2       36 1
  41        5       37 1
  42        6       38 1
  43       12       39 1
  44       12       40 1
  45       15       41 1
  46       15       42 1
  47       16       43 1
  48       16       44 1
  49       19       45 1
  50       22       46 1
  51       22       47 1
  52       23       48 1
  53       23       49 1
  54       23       50 1
  55       26       51 1
  56       26       52 1
  57       28       53 1
  58       29       54 1

@<TRIPOS>MOLECULE

  54   58
SMALL
USER_CHARGES
@<TRIPOS>ATOM
   1 C1           3.1857    -7.8165    -0.2030 C.3          1    LIG   0.0000
   2 C2           2.4773    -6.4723    -0.1620 C.3          1    LIG   0.0000
   3 O3           3.4405    -5.4290    -0.1745 O.3          1    LIG   0.0000
   4 C4           2.9400    -4.1755    -0.1410 C.ar         1    LIG   0.0000
   5 C5           3.8111    -3.0912    -0.1502 C.ar         1    LIG   0.0000
   6 C6           3.2895    -1.8024    -0.1160 C.ar         1    LIG   0.0000
   7 C7           1.9117    -1.6108    -0.0720 C.ar         1    LIG   0.0000
   8 C8           1.3773    -0.2627    -0.0370 C.2          1    LIG   0.0000
   9 N9           2.0781     0.8449    -0.0424 N.2          1    LIG   0.0000
  10 O10          1.2672     1.8158    -0.0083 O.2          1    LIG   0.0000
  11 C11          0.0319     1.3792     0.0236 C.2          1    LIG   0.0000
  12 C12         -1.2175     2.2433     0.0709 C.3          1    LIG   0.0000
  13 N13         -1.6628     2.5386    -1.3025 N.3          1    LIG   0.0000
  14 C14         -0.5771     2.9557    -2.1897 C.3          1    LIG   0.0000
  15 C15          0.1043     1.6577    -2.5937 C.3          1    LIG   0.0000
  16 C16         -0.9439     0.5859    -2.3124 C.3          1    LIG   0.0000
  17 C17         -2.2086     1.3771    -2.0146 C.3          1    LIG   0.0000
  18 C18         -2.5928     1.5872    -3.4701 C.ar         1    LIG   0.0000
  19 C19         -3.4671     0.7401    -4.1361 C.ar         1    LIG   0.0000
  20 N20         -3.7112     0.9763    -5.4332 N.ar         1    LIG   0.0000
  21 C21         -3.1405     1.9878    -6.1061 C.ar         1    LIG   0.0000
  22 C22         -3.4387     2.1934    -7.5819 C.3          1    LIG   0.0000
  23 C23         -4.4072     1.1226    -8.0571 C.3          1    LIG   0.0000
  24 N24         -2.3062     2.8141    -5.4578 N.ar         1    LIG   0.0000
  25 C25         -2.0329     2.6509    -4.1579 C.ar         1    LIG   0.0000
  26 C26         -1.1029     3.6237    -3.4460 C.3          1    LIG   0.0000
  27 N27          0.0607     0.0692     0.0083 N.2          1    LIG   0.0000
  28 C28          1.0487    -2.7013    -0.0625 C.ar         1    LIG   0.0000
  29 C29          1.5619    -3.9940    -0.0978 C.ar         1    LIG   0.0000
  30 H            0.0618     3.5567    -1.7096 H            1    LIG   0.0000
  31 H           -2.8885     0.8659    -1.4888 H            1    LIG   0.0000
  32 H            2.5074    -8.5512    -0.1942 H            1    LIG   0.0000
  33 H            3.7340    -7.8790    -1.0369 H            1    LIG   0.0000
  34 H            3.7818    -7.9036     0.5952 H            1    LIG   0.0000
  35 H            1.8812    -6.3852    -0.9602 H            1    LIG   0.0000
  36 H            1.9289    -6.4098     0.6719 H            1    LIG   0.0000
  37 H            4.8000    -3.2365    -0.1810 H            1    LIG   0.0000
  38 H            3.9042    -1.0137    -0.1229 H            1    LIG   0.0000
  39 H           -1.9417     1.7558     0.5586 H            1    LIG   0.0000
  40 H           -1.0131     3.0990     0.5463 H            1    LIG   0.0000
  41 H            0.9266     1.5027    -2.0462 H            1    LIG   0.0000
  42 H            0.3473     1.6710    -3.5637 H            1    LIG   0.0000
  43 H           -1.0728    -0.0032    -3.1101 H            1    LIG   0.0000
  44 H           -0.6798     0.0284    -1.5254 H            1    LIG   0.0000
  45 H           -3.9030    -0.0249    -3.6619 H            1    LIG   0.0000
  46 H           -2.5891     2.1306    -8.1056 H            1    LIG   0.0000
  47 H           -3.8475     3.0961    -7.7168 H            1    LIG   0.0000
  48 H           -4.6034     1.2580    -9.0283 H            1    LIG   0.0000
  49 H           -3.9985     0.2200    -7.9223 H            1    LIG   0.0000
  50 H           -5.2568     1.1855    -7.5335 H            1    LIG   0.0000
  51 H           -1.6052     4.4532    -3.2018 H            1    LIG   0.0000
  52 H           -0.3393     3.8611    -4.0465 H            1    LIG   0.0000
  53 H            0.0598    -2.5564    -0.0302 H            1    LIG   0.0000
  54 H            0.9474    -4.7828    -0.0922 H            1    LIG   0.0000
@<TRIPOS>BOND
   1        1        2 1
   2        2        3 1
   3        3        4 1
   4        4        5 ar
   5        5        6 ar
   6        6        7 ar
   7        7        8 1
   8        8        9 2
   9        9       10 1
  10       10       11 1
  11       11       12 1
  12       12       13 1
  13       13       14 1
  14       14       15 1
  15       15       16 1
  16       16       17 1
  17       17       13 1
  18       17       18 1
  19       18       19 ar
  20       19       20 ar
  21       20       21 ar
  22       21       22 1
  23       22       23 1
  24       21       24 ar
  25       24       25 ar
  26       25       18 ar
  27       25       26 1
  28       26       14 1
  29       11       27 2
  30       27        8 1
  31        7       28 ar
  32       28       29 ar
  33       29        4 ar
  34       14       30 1
  35       17       31 1
  36        1       32 1
  37        1       33 1
  38        1       34 1
  39        2       35 1
  40        2       36 1
  41        5       37 1
  42        6       38 1
  43       12       39 1
  44       12       40 1
  45       15       41 1
  46       15       42 1
  47       16       43 1
  48       16       44 1
  49       19       45 1
  50       22       46 1
  51       22       47 1
  52       23       48 1
  53       23       49 1
  54       23       50 1
  55       26       51 1
  56       26       52 1
  57       28       53 1
  58       29       54 1

@<TRIPOS>MOLECULE

  54   58
SMALL
USER_CHARGES
@<TRIPOS>ATOM
   1 C1           1.9921    -6.6970     1.2609 C.3          1    LIG   0.0000
   2 C2           2.4773    -6.4723    -0.1620 C.3          1    LIG   0.0000
   3 O3           3.4405    -5.4290    -0.1745 O.3          1    LIG   0.0000
   4 C4           2.9400    -4.1755    -0.1410 C.ar         1    LIG   0.0000
   5 C5           3.8111    -3.0912    -0.1502 C.ar         1    LIG   0.0000
   6 C6           3.2895    -1.8024    -0.1160 C.ar         1    LIG   0.0000
   7 C7           1.9117    -1.6108    -0.0720 C.ar         1    LIG   0.0000
   8 C8           1.3773    -0.2627    -0.0370 C.2          1    LIG   0.0000
   9 N9           2.0781     0.8449    -0.0424 N.2          1    LIG   0.0000
  10 O10          1.2672     1.8158    -0.0083 O.2          1    LIG   0.0000
  11 C11          0.0319     1.3792     0.0236 C.2          1    LIG   0.0000
  12 C12         -1.2175     2.2433     0.0709 C.3          1    LIG   0.0000
  13 N13         -1.6634     2.5390    -1.3043 N.3          1    LIG   0.0000
  14 C14         -2.3085     1.3930    -1.9562 C.3          1    LIG   0.0000
  15 C15         -3.6823     1.3466    -1.3193 C.3          1    LIG   0.0000
  16 C16         -3.9502     2.7840    -0.9166 C.3          1    LIG   0.0000
  17 C17         -2.7170     3.5512    -1.3559 C.3          1    LIG   0.0000
  18 C18         -2.8679     3.9631    -2.8108 C.ar         1    LIG   0.0000
  19 C19         -3.0422     5.3061    -3.1132 C.ar         1    LIG   0.0000
  20 N20         -3.2070     5.6194    -4.4048 N.ar         1    LIG   0.0000
  21 C21         -3.2102     4.6826    -5.3648 C.ar         1    LIG   0.0000
  22 C22         -3.4394     5.0795    -6.8119 C.3          1    LIG   0.0000
  23 C23         -3.4025     3.8390    -7.6895 C.3          1    LIG   0.0000
  24 N24         -3.0219     3.3827    -5.0943 N.ar         1    LIG   0.0000
  25 C25         -2.8336     3.0088    -3.8228 C.ar         1    LIG   0.0000
  26 C26         -2.5701     1.5584    -3.4400 C.3          1    LIG   0.0000
  27 N27          0.0607     0.0692     0.0083 N.2          1    LIG   0.0000
  28 C28          1.0487    -2.7013    -0.0625 C.ar         1    LIG   0.0000
  29 C29          1.5619    -3.9940    -0.0978 C.ar         1    LIG   0.0000
  30 H           -1.8032     0.5493    -1.7754 H            1    LIG   0.0000
  31 H           -2.5233     4.3303    -0.7597 H            1    LIG   0.0000
  32 H            1.3138    -7.4317     1.2696 H            1    LIG   0.0000
  33 H            2.7662    -6.9511     1.8407 H            1    LIG   0.0000
  34 H            1.5772    -5.8561     1.6083 H            1    LIG   0.0000
  35 H            2.8922    -7.3132    -0.5095 H            1    LIG   0.0000
  36 H            1.7032    -6.2183    -0.7419 H            1    LIG   0.0000
  37 H            4.8000    -3.2365    -0.1810 H            1    LIG   0.0000
  38 H            3.9042    -1.0137    -0.1229 H            1    LIG   0.0000
  39 H           -1.9417     1.7558     0.5586 H            1    LIG   0.0000
  40 H           -1.0131     3.0990     0.5463 H            1    LIG   0.0000
  41 H           -3.6826     0.7474    -0.5187 H            1    LIG   0.0000
  42 H           -4.3671     1.0277    -1.9746 H            1    LIG   0.0000
  43 H           -4.7648     3.1329    -1.3801 H            1    LIG   0.0000
  44 H           -4.0740     2.8545     0.0732 H            1    LIG   0.0000
  45 H           -3.0446     6.0071    -2.4001 H            1    LIG   0.0000
  46 H           -2.7224     5.7138    -7.1011 H            1    LIG   0.0000
  47 H           -4.3315     5.5228    -6.8987 H            1    LIG   0.0000
  48 H           -3.5535     4.1005    -8.6428 H            1    LIG   0.0000
  49 H           -2.5104     3.3957    -7.6027 H            1    LIG   0.0000
  50 H           -4.1195     3.2047    -7.4003 H            1    LIG   0.0000
  51 H           -1.7713     1.2325    -3.9456 H            1    LIG   0.0000
  52 H           -3.3686     1.0101    -3.6888 H            1    LIG   0.0000
  53 H            0.0598    -2.5564    -0.0302 H            1    LIG   0.0000
  54 H            0.9474    -4.7828    -0.0922 H            1    LIG   0.0000
@<TRIPOS>BOND
   1        1        2 1
   2        2        3 1
   3        3        4 1
   4        4        5 ar
   5        5        6 ar
   6        6        7 ar
   7        7        8 1
   8        8        9 2
   9        9       10 1
  10       10       11 1
  11       11       12 1
  12       12       13 1
  13       13       14 1
  14       14       15 1
  15       15       16 1
  16       16       17 1
  17       17       13 1
  18       17       18 1
  19       18       19 ar
  20       19       20 ar
  21       20       21 ar
  22       21       22 1
  23       22       23 1
  24       21       24 ar
  25       24       25 ar
  26       25       18 ar
  27       25       26 1
  28       26       14 1
  29       11       27 2
  30       27        8 1
  31        7       28 ar
  32       28       29 ar
  33       29        4 ar
  34       14       30 1
  35       17       31 1
  36        1       32 1
  37        1       33 1
  38        1       34 1
  39        2       35 1
  40        2       36 1
  41        5       37 1
  42        6       38 1
  43       12       39 1
  44       12       40 1
  45       15       41 1
  46       15       42 1
  47       16       43 1
  48       16       44 1
  49       19       45 1
  50       22       46 1
  51       22       47 1
  52       23       48 1
  53       23       49 1
  54       23       50 1
  55       26       51 1
  56       26       52 1
  57       28       53 1
  58       29       54 1

@<TRIPOS>MOLECULE

  54   58
SMALL
USER_CHARGES
@<TRIPOS>ATOM
   1 C1           5.4197    -5.3266     1.1812 C.3          1    LIG   0.0000
   2 C2           4.8569    -5.5209    -0.2174 C.3          1    LIG   0.0000
   3 O3           3.4405    -5.4290    -0.1745 O.3          1    LIG   0.0000
   4 C4           2.9400    -4.1755    -0.1410 C.ar         1    LIG   0.0000
   5 C5           3.8111    -3.0912    -0.1502 C.ar         1    LIG   0.0000
   6 C6           3.2895    -1.8024    -0.1160 C.ar         1    LIG   0.0000
   7 C7           1.9117    -1.6108    -0.0720 C.ar         1    LIG   0.0000
   8 C8           1.3773    -0.2627    -0.0370 C.2          1    LIG   0.0000
   9 N9           2.0781     0.8449    -0.0424 N.2          1    LIG   0.0000
  10 O10          1.2672     1.8158    -0.0083 O.2          1    LIG   0.0000
  11 C11          0.0319     1.3792     0.0236 C.2          1    LIG   0.0000
  12 C12         -1.2175     2.2433     0.0709 C.3          1    LIG   0.0000
  13 N13         -1.5798     2.5066     1.4749 N.3          1    LIG   0.0000
  14 C14         -0.4856     3.0754     2.2617 C.3          1    LIG   0.0000
  15 C15         -0.4783     4.5507     1.8930 C.3          1    LIG   0.0000
  16 C16         -1.8703     4.7960     1.3197 C.3          1    LIG   0.0000
  17 C17         -2.6307     3.5179     1.6394 C.3          1    LIG   0.0000
  18 C18         -2.9817     3.9122     3.0647 C.ar         1    LIG   0.0000
  19 C19         -4.1841     4.5233     3.3905 C.ar         1    LIG   0.0000
  20 N20         -4.3874     4.8782     4.6675 N.ar         1    LIG   0.0000
  21 C21         -3.4760     4.6725     5.6312 C.ar         1    LIG   0.0000
  22 C22         -3.7534     5.1159     7.0579 C.3          1    LIG   0.0000
  23 C23         -2.5660     4.7621     7.9385 C.3          1    LIG   0.0000
  24 N24         -2.3197     4.0692     5.3176 N.ar         1    LIG   0.0000
  25 C25         -2.0579     3.6693     4.0676 C.ar         1    LIG   0.0000
  26 C26         -0.7469     2.9625     3.7517 C.3          1    LIG   0.0000
  27 N27          0.0607     0.0692     0.0083 N.2          1    LIG   0.0000
  28 C28          1.0487    -2.7013    -0.0625 C.ar         1    LIG   0.0000
  29 C29          1.5619    -3.9940    -0.0978 C.ar         1    LIG   0.0000
  30 H            0.3846     2.6457     2.0210 H            1    LIG   0.0000
  31 H           -3.4285     3.3676     1.0555 H            1    LIG   0.0000
  32 H            6.4172    -5.3913     1.1510 H            1    LIG   0.0000
  33 H            5.1543    -4.4259     1.5251 H            1    LIG   0.0000
  34 H            5.0579    -6.0348     1.7875 H            1    LIG   0.0000
  35 H            5.2186    -4.8127    -0.8236 H            1    LIG   0.0000
  36 H            5.1222    -6.4216    -0.5613 H            1    LIG   0.0000
  37 H            4.8000    -3.2365    -0.1810 H            1    LIG   0.0000
  38 H            3.9042    -1.0137    -0.1229 H            1    LIG   0.0000
  39 H           -1.0413     3.1099    -0.3960 H            1    LIG   0.0000
  40 H           -1.9699     1.7667    -0.3838 H            1    LIG   0.0000
  41 H            0.2262     4.7426     1.2098 H            1    LIG   0.0000
  42 H           -0.3220     5.1181     2.7015 H            1    LIG   0.0000
  43 H           -2.3012     5.5849     1.7578 H            1    LIG   0.0000
  44 H           -1.8265     4.9460     0.3320 H            1    LIG   0.0000
  45 H           -4.8795     4.6943     2.6925 H            1    LIG   0.0000
  46 H           -4.5710     4.6514     7.3984 H            1    LIG   0.0000
  47 H           -3.8997     6.1050     7.0771 H            1    LIG   0.0000
  48 H           -2.7486     5.0539     8.8773 H            1    LIG   0.0000
  49 H           -2.4198     3.7731     7.9193 H            1    LIG   0.0000
  50 H           -1.7485     5.2266     7.5980 H            1    LIG   0.0000
  51 H           -0.8124     1.9988     4.0105 H            1    LIG   0.0000
  52 H           -0.0005     3.3938     4.2586 H            1    LIG   0.0000
  53 H            0.0598    -2.5564    -0.0302 H            1    LIG   0.0000
  54 H            0.9474    -4.7828    -0.0922 H            1    LIG   0.0000
@<TRIPOS>BOND
   1        1        2 1
   2        2        3 1
   3        3        4 1
   4        4        5 ar
   5        5        6 ar
   6        6        7 ar
   7        7        8 1
   8        8        9 2
   9        9       10 1
  10       10       11 1
  11       11       12 1
  12       12       13 1
  13       13       14 1
  14       14       15 1
  15       15       16 1
  16       16       17 1
  17       17       13 1
  18       17       18 1
  19       18       19 ar
  20       19       20 ar
  21       20       21 ar
  22       21       22 1
  23       22       23 1
  24       21       24 ar
  25       24       25 ar
  26       25       18 ar
  27       25       26 1
  28       26       14 1
  29       11       27 2
  30       27        8 1
  31        7       28 ar
  32       28       29 ar
  33       29        4 ar
  34       14       30 1
  35       17       31 1
  36        1       32 1
  37        1       33 1
  38        1       34 1
  39        2       35 1
  40        2       36 1
  41        5       37 1
  42        6       38 1
  43       12       39 1
  44       12       40 1
  45       15       41 1
  46       15       42 1
  47       16       43 1
  48       16       44 1
  49       19       45 1
  50       22       46 1
  51       22       47 1
  52       23       48 1
  53       23       49 1
  54       23       50 1
  55       26       51 1
  56       26       52 1
  57       28       53 1
  58       29       54 1

@<TRIPOS>MOLECULE

  54   58
SMALL
USER_CHARGES
@<TRIPOS>ATOM
   1 C1           5.4197    -5.3266     1.1812 C.3          1    LIG   0.0000
   2 C2           4.8569    -5.5209    -0.2174 C.3          1    LIG   0.0000
   3 O3           3.4405    -5.4290    -0.1745 O.3          1    LIG   0.0000
   4 C4           2.9400    -4.1755    -0.1410 C.ar         1    LIG   0.0000
   5 C5           3.8111    -3.0912    -0.1502 C.ar         1    LIG   0.0000
   6 C6           3.2895    -1.8024    -0.1160 C.ar         1    LIG   0.0000
   7 C7           1.9117    -1.6108    -0.0720 C.ar         1    LIG   0.0000
   8 C8           1.3773    -0.2627    -0.0370 C.2          1    LIG   0.0000
   9 N9           2.0781     0.8449    -0.0424 N.2          1    LIG   0.0000
  10 O10          1.2672     1.8158    -0.0083 O.2          1    LIG   0.0000
  11 C11          0.0319     1.3792     0.0236 C.2          1    LIG   0.0000
  12 C12         -1.2175     2.2433     0.0709 C.3          1    LIG   0.0000
  13 N13         -1.5802     2.5070     1.4767 N.3          1    LIG   0.0000
  14 C14         -2.7090     3.4354     1.6126 C.3          1    LIG   0.0000
  15 C15         -3.9140     2.5861     1.2639 C.3          1    LIG   0.0000
  16 C16         -3.4900     1.1770     1.6310 C.3          1    LIG   0.0000
  17 C17         -2.0782     1.3193     2.1685 C.3          1    LIG   0.0000
  18 C18         -2.1313     1.6560     3.6494 C.ar         1    LIG   0.0000
  19 C19         -1.7139     0.7045     4.5691 C.ar         1    LIG   0.0000
  20 N20         -1.8117     1.0305     5.8643 N.ar         1    LIG   0.0000
  21 C21         -2.2952     2.2176     6.2600 C.ar         1    LIG   0.0000
  22 C22         -2.4243     2.5294     7.7400 C.3          1    LIG   0.0000
  23 C23         -3.0006     3.9249     7.9154 C.3          1    LIG   0.0000
  24 N24         -2.6831     3.1577     5.3859 N.ar         1    LIG   0.0000
  25 C25         -2.5925     2.8975     4.0759 C.ar         1    LIG   0.0000
  26 C26         -2.9721     3.9288     3.0214 C.3          1    LIG   0.0000
  27 N27          0.0607     0.0692     0.0083 N.2          1    LIG   0.0000
  28 C28          1.0487    -2.7013    -0.0625 C.ar         1    LIG   0.0000
  29 C29          1.5619    -3.9940    -0.0978 C.ar         1    LIG   0.0000
  30 H           -2.6179     4.2025     0.9776 H            1    LIG   0.0000
  31 H           -1.5192     0.5110     1.9836 H            1    LIG   0.0000
  32 H            6.4172    -5.3913     1.1510 H            1    LIG   0.0000
  33 H            5.1543    -4.4259     1.5251 H            1    LIG   0.0000
  34 H            5.0579    -6.0348     1.7875 H            1    LIG   0.0000
  35 H            5.2186    -4.8127    -0.8236 H            1    LIG   0.0000
  36 H            5.1222    -6.4216    -0.5613 H            1    LIG   0.0000
  37 H            4.8000    -3.2365    -0.1810 H            1    LIG   0.0000
  38 H            3.9042    -1.0137    -0.1229 H            1    LIG   0.0000
  39 H           -1.0413     3.1099    -0.3960 H            1    LIG   0.0000
  40 H           -1.9699     1.7667    -0.3838 H            1    LIG   0.0000
  41 H           -4.1242     2.6511     0.2884 H            1    LIG   0.0000
  42 H           -4.7126     2.8668     1.7963 H            1    LIG   0.0000
  43 H           -4.0960     0.7986     2.3307 H            1    LIG   0.0000
  44 H           -3.5013     0.5853     0.8249 H            1    LIG   0.0000
  45 H           -1.3567    -0.1832     4.2783 H            1    LIG   0.0000
  46 H           -1.5226     2.4846     8.1700 H            1    LIG   0.0000
  47 H           -3.0320     1.8613     8.1696 H            1    LIG   0.0000
  48 H           -3.0857     4.1302     8.8904 H            1    LIG   0.0000
  49 H           -2.3930     4.5929     7.4858 H            1    LIG   0.0000
  50 H           -3.9023     3.9696     7.4854 H            1    LIG   0.0000
  51 H           -2.4368     4.7592     3.1765 H            1    LIG   0.0000
  52 H           -3.9457     4.1381     3.1122 H            1    LIG   0.0000
  53 H            0.0598    -2.5564    -0.0302 H            1    LIG   0.0000
  54 H            0.9474    -4.7828    -0.0922 H            1    LIG   0.0000
@<TRIPOS>BOND
   1        1        2 1
   2        2        3 1
   3        3        4 1
   4        4        5 ar
   5        5        6 ar
   6        6        7 ar
   7        7        8 1
   8        8        9 2
   9        9       10 1
  10       10       11 1
  11       11       12 1
  12       12       13 1
  13       13       14 1
  14       14       15 1
  15       15       16 1
  16       16       17 1
  17       17       13 1
  18       17       18 1
  19       18       19 ar
  20       19       20 ar
  21       20       21 ar
  22       21       22 1
  23       22       23 1
  24       21       24 ar
  25       24       25 ar
  26       25       18 ar
  27       25       26 1
  28       26       14 1
  29       11       27 2
  30       27        8 1
  31        7       28 ar
  32       28       29 ar
  33       29        4 ar
  34       14       30 1
  35       17       31 1
  36        1       32 1
  37        1       33 1
  38        1       34 1
  39        2       35 1
  40        2       36 1
  41        5       37 1
  42        6       38 1
  43       12       39 1
  44       12       40 1
  45       15       41 1
  46       15       42 1
  47       16       43 1
  48       16       44 1
  49       19       45 1
  50       22       46 1
  51       22       47 1
  52       23       48 1
  53       23       49 1
  54       23       50 1
  55       26       51 1
  56       26       52 1
  57       28       53 1
  58       29       54 1

@<TRIPOS>MOLECULE

  54   58
SMALL
USER_CHARGES
@<TRIPOS>ATOM
   1 C1           5.4197    -5.3266     1.1812 C.3          1    LIG   0.0000
   2 C2           4.8569    -5.5209    -0.2174 C.3          1    LIG   0.0000
   3 O3           3.4405    -5.4290    -0.1745 O.3          1    LIG   0.0000
   4 C4           2.9400    -4.1755    -0.1410 C.ar         1    LIG   0.0000
   5 C5           3.8111    -3.0912    -0.1502 C.ar         1    LIG   0.0000
   6 C6           3.2895    -1.8024    -0.1160 C.ar         1    LIG   0.0000
   7 C7           1.9117    -1.6108    -0.0720 C.ar         1    LIG   0.0000
   8 C8           1.3773    -0.2627    -0.0370 C.2          1    LIG   0.0000
   9 N9           2.0781     0.8449    -0.0424 N.2          1    LIG   0.0000
  10 O10          1.2672     1.8158    -0.0083 O.2          1    LIG   0.0000
  11 C11          0.0319     1.3792     0.0236 C.2          1    LIG   0.0000
  12 C12         -1.2175     2.2433     0.0709 C.3          1    LIG   0.0000
  13 N13         -1.6635     2.5391    -1.3045 N.3          1    LIG   0.0000
  14 C14         -2.9193     3.2888    -1.3851 C.3          1    LIG   0.0000
  15 C15         -2.4755     4.6747    -0.9481 C.3          1    LIG   0.0000
  16 C16         -1.0276     4.7974    -1.3870 C.3          1    LIG   0.0000
  17 C17         -0.7663     3.4521    -2.0233 C.3          1    LIG   0.0000
  18 C18         -1.2024     3.8013    -3.4358 C.ar         1    LIG   0.0000
  19 C19         -0.2673     4.2581    -4.3571 C.ar         1    LIG   0.0000
  20 N20         -0.7046     4.6029    -5.5743 N.ar         1    LIG   0.0000
  21 C21         -1.9979     4.5282    -5.9240 C.ar         1    LIG   0.0000
  22 C22         -2.4328     4.9673    -7.3127 C.3          1    LIG   0.0000
  23 C23         -3.9358     4.7891    -7.4530 C.3          1    LIG   0.0000
  24 N24         -2.8931     4.0688    -5.0370 N.ar         1    LIG   0.0000
  25 C25         -2.5333     3.6765    -3.8066 C.ar         1    LIG   0.0000
  26 C26         -3.5107     3.1267    -2.7769 C.3          1    LIG   0.0000
  27 N27          0.0607     0.0692     0.0083 N.2          1    LIG   0.0000
  28 C28          1.0487    -2.7013    -0.0625 C.ar         1    LIG   0.0000
  29 C29          1.5619    -3.9940    -0.0978 C.ar         1    LIG   0.0000
  30 H           -3.5621     2.9236    -0.7118 H            1    LIG   0.0000
  31 H            0.1935     3.1765    -1.9696 H            1    LIG   0.0000
  32 H            6.4172    -5.3913     1.1510 H            1    LIG   0.0000
  33 H            5.1543    -4.4259     1.5251 H            1    LIG   0.0000
  34 H            5.0579    -6.0348     1.7875 H            1    LIG   0.0000
  35 H            5.2186    -4.8127    -0.8236 H            1    LIG   0.0000
  36 H            5.1222    -6.4216    -0.5613 H            1    LIG   0.0000
  37 H            4.8000    -3.2365    -0.1810 H            1    LIG   0.0000
  38 H            3.9042    -1.0137    -0.1229 H            1    LIG   0.0000
  39 H           -1.9417     1.7558     0.5586 H            1    LIG   0.0000
  40 H           -1.0131     3.0990     0.5463 H            1    LIG   0.0000
  41 H           -2.5483     4.7674     0.0449 H            1    LIG   0.0000
  42 H           -3.0349     5.3758    -1.3902 H            1    LIG   0.0000
  43 H           -0.9116     5.5388    -2.0479 H            1    LIG   0.0000
  44 H           -0.4242     4.9508    -0.6045 H            1    LIG   0.0000
  45 H            0.7013     4.3270    -4.1182 H            1    LIG   0.0000
  46 H           -1.9656     4.4109    -7.9998 H            1    LIG   0.0000
  47 H           -2.1973     5.9299    -7.4470 H            1    LIG   0.0000
  48 H           -4.2219     5.0779    -8.3666 H            1    LIG   0.0000
  49 H           -4.1713     3.8265    -7.3187 H            1    LIG   0.0000
  50 H           -4.4030     5.3455    -6.7659 H            1    LIG   0.0000
  51 H           -3.6769     2.1575    -2.9584 H            1    LIG   0.0000
  52 H           -4.3734     3.6292    -2.8338 H            1    LIG   0.0000
  53 H            0.0598    -2.5564    -0.0302 H            1    LIG   0.0000
  54 H            0.9474    -4.7828    -0.0922 H            1    LIG   0.0000
@<TRIPOS>BOND
   1        1        2 1
   2        2        3 1
   3        3        4 1
   4        4        5 ar
   5        5        6 ar
   6        6        7 ar
   7        7        8 1
   8        8        9 2
   9        9       10 1
  10       10       11 1
  11       11       12 1
  12       12       13 1
  13       13       14 1
  14       14       15 1
  15       15       16 1
  16       16       17 1
  17       17       13 1
  18       17       18 1
  19       18       19 ar
  20       19       20 ar
  21       20       21 ar
  22       21       22 1
  23       22       23 1
  24       21       24 ar
  25       24       25 ar
  26       25       18 ar
  27       25       26 1
  28       26       14 1
  29       11       27 2
  30       27        8 1
  31        7       28 ar
  32       28       29 ar
  33       29        4 ar
  34       14       30 1
  35       17       31 1
  36        1       32 1
  37        1       33 1
  38        1       34 1
  39        2       35 1
  40        2       36 1
  41        5       37 1
  42        6       38 1
  43       12       39 1
  44       12       40 1
  45       15       41 1
  46       15       42 1
  47       16       43 1
  48       16       44 1
  49       19       45 1
  50       22       46 1
  51       22       47 1
  52       23       48 1
  53       23       49 1
  54       23       50 1
  55       26       51 1
  56       26       52 1
  57       28       53 1
  58       29       54 1

@<TRIPOS>MOLECULE

  54   58
SMALL
USER_CHARGES
@<TRIPOS>ATOM
   1 C1           5.4197    -5.3266     1.1812 C.3          1    LIG   0.0000
   2 C2           4.8569    -5.5209    -0.2174 C.3          1    LIG   0.0000
   3 O3           3.4405    -5.4290    -0.1745 O.3          1    LIG   0.0000
   4 C4           2.9400    -4.1755    -0.1410 C.ar         1    LIG   0.0000
   5 C5           3.8111    -3.0912    -0.1502 C.ar         1    LIG   0.0000
   6 C6           3.2895    -1.8024    -0.1160 C.ar         1    LIG   0.0000
   7 C7           1.9117    -1.6108    -0.0720 C.ar         1    LIG   0.0000
   8 C8           1.3773    -0.2627    -0.0370 C.2          1    LIG   0.0000
   9 N9           2.0781     0.8449    -0.0424 N.2          1    LIG   0.0000
  10 O10          1.2672     1.8158    -0.0083 O.2          1    LIG   0.0000
  11 C11          0.0319     1.3792     0.0236 C.2          1    LIG   0.0000
  12 C12         -1.2175     2.2433     0.0709 C.3          1    LIG   0.0000
  13 N13         -1.6628     2.5386    -1.3025 N.3          1    LIG   0.0000
  14 C14         -0.5771     2.9557    -2.1897 C.3          1    LIG   0.0000
  15 C15          0.1043     1.6577    -2.5937 C.3          1    LIG   0.0000
  16 C16         -0.9439     0.5859    -2.3124 C.3          1    LIG   0.0000
  17 C17         -2.2086     1.3771    -2.0146 C.3          1    LIG   0.0000
  18 C18         -2.5928     1.5872    -3.4701 C.ar         1    LIG   0.0000
  19 C19         -3.4671     0.7401    -4.1361 C.ar         1    LIG   0.0000
  20 N20         -3.7112     0.9763    -5.4332 N.ar         1    LIG   0.0000
  21 C21         -3.1405     1.9878    -6.1061 C.ar         1    LIG   0.0000
  22 C22         -3.4387     2.1934    -7.5819 C.3          1    LIG   0.0000
  23 C23         -2.6692     3.4014    -8.0908 C.3          1    LIG   0.0000
  24 N24         -2.3062     2.8141    -5.4578 N.ar         1    LIG   0.0000
  25 C25         -2.0329     2.6509    -4.1579 C.ar         1    LIG   0.0000
  26 C26         -1.1029     3.6237    -3.4460 C.3          1    LIG   0.0000
  27 N27          0.0607     0.0692     0.0083 N.2          1    LIG   0.0000
  28 C28          1.0487    -2.7013    -0.0625 C.ar         1    LIG   0.0000
  29 C29          1.5619    -3.9940    -0.0978 C.ar         1    LIG   0.0000
  30 H            0.0618     3.5567    -1.7096 H            1    LIG   0.0000
  31 H           -2.8885     0.8659    -1.4888 H            1    LIG   0.0000
  32 H            6.4172    -5.3913     1.1510 H            1    LIG   0.0000
  33 H            5.1543    -4.4259     1.5251 H            1    LIG   0.0000
  34 H            5.0579    -6.0348     1.7875 H            1    LIG   0.0000
  35 H            5.2186    -4.8127    -0.8236 H            1    LIG   0.0000
  36 H            5.1222    -6.4216    -0.5613 H            1    LIG   0.0000
  37 H            4.8000    -3.2365    -0.1810 H            1    LIG   0.0000
  38 H            3.9042    -1.0137    -0.1229 H            1    LIG   0.0000
  39 H           -1.9417     1.7558     0.5586 H            1    LIG   0.0000
  40 H           -1.0131     3.0990     0.5463 H            1    LIG   0.0000
  41 H            0.9266     1.5027    -2.0462 H            1    LIG   0.0000
  42 H            0.3473     1.6710    -3.5637 H            1    LIG   0.0000
  43 H           -1.0728    -0.0032    -3.1101 H            1    LIG   0.0000
  44 H           -0.6798     0.0284    -1.5254 H            1    LIG   0.0000
  45 H           -3.9030    -0.0249    -3.6619 H            1    LIG   0.0000
  46 H           -4.4192     2.3465    -7.7057 H            1    LIG   0.0000
  47 H           -3.1609     1.3810    -8.0945 H            1    LIG   0.0000
  48 H           -2.8654     3.5367    -9.0620 H            1    LIG   0.0000
  49 H           -2.9470     4.2138    -7.5782 H            1    LIG   0.0000
  50 H           -1.6887     3.2484    -7.9670 H            1    LIG   0.0000
  51 H           -1.6052     4.4532    -3.2018 H            1    LIG   0.0000
  52 H           -0.3393     3.8611    -4.0465 H            1    LIG   0.0000
  53 H            0.0598    -2.5564    -0.0302 H            1    LIG   0.0000
  54 H            0.9474    -4.7828    -0.0922 H            1    LIG   0.0000
@<TRIPOS>BOND
   1        1        2 1
   2        2        3 1
   3        3        4 1
   4        4        5 ar
   5        5        6 ar
   6        6        7 ar
   7        7        8 1
   8        8        9 2
   9        9       10 1
  10       10       11 1
  11       11       12 1
  12       12       13 1
  13       13       14 1
  14       14       15 1
  15       15       16 1
  16       16       17 1
  17       17       13 1
  18       17       18 1
  19       18       19 ar
  20       19       20 ar
  21       20       21 ar
  22       21       22 1
  23       22       23 1
  24       21       24 ar
  25       24       25 ar
  26       25       18 ar
  27       25       26 1
  28       26       14 1
  29       11       27 2
  30       27        8 1
  31        7       28 ar
  32       28       29 ar
  33       29        4 ar
  34       14       30 1
  35       17       31 1
  36        1       32 1
  37        1       33 1
  38        1       34 1
  39        2       35 1
  40        2       36 1
  41        5       37 1
  42        6       38 1
  43       12       39 1
  44       12       40 1
  45       15       41 1
  46       15       42 1
  47       16       43 1
  48       16       44 1
  49       19       45 1
  50       22       46 1
  51       22       47 1
  52       23       48 1
  53       23       49 1
  54       23       50 1
  55       26       51 1
  56       26       52 1
  57       28       53 1
  58       29       54 1

@<TRIPOS>MOLECULE

  54   58
SMALL
USER_CHARGES
@<TRIPOS>ATOM
   1 C1           5.3372    -5.2842    -1.6399 C.3          1    LIG   0.0000
   2 C2           4.8569    -5.5209    -0.2174 C.3          1    LIG   0.0000
   3 O3           3.4405    -5.4290    -0.1745 O.3          1    LIG   0.0000
   4 C4           2.9400    -4.1755    -0.1410 C.ar         1    LIG   0.0000
   5 C5           3.8111    -3.0912    -0.1502 C.ar         1    LIG   0.0000
   6 C6           3.2895    -1.8024    -0.1160 C.ar         1    LIG   0.0000
   7 C7           1.9117    -1.6108    -0.0720 C.ar         1    LIG   0.0000
   8 C8           1.3773    -0.2627    -0.0370 C.2          1    LIG   0.0000
   9 N9           2.0781     0.8449    -0.0424 N.2          1    LIG   0.0000
  10 O10          1.2672     1.8158    -0.0083 O.2          1    LIG   0.0000
  11 C11          0.0319     1.3792     0.0236 C.2          1    LIG   0.0000
  12 C12         -1.2175     2.2433     0.0709 C.3          1    LIG   0.0000
  13 N13         -1.5802     2.5070     1.4767 N.3          1    LIG   0.0000
  14 C14         -0.7024     3.4920     2.1198 C.3          1    LIG   0.0000
  15 C15         -1.1745     4.8151     1.5528 C.3          1    LIG   0.0000
  16 C16         -2.6329     4.5718     1.2155 C.3          1    LIG   0.0000
  17 C17         -2.8941     3.1323     1.6179 C.3          1    LIG   0.0000
  18 C18         -3.2577     3.0763     3.0924 C.ar         1    LIG   0.0000
  19 C19         -4.5589     2.7538     3.4506 C.ar         1    LIG   0.0000
  20 N20         -4.8437     2.7514     4.7592 N.ar         1    LIG   0.0000
  21 C21         -3.9199     3.0516     5.6844 C.ar         1    LIG   0.0000
  22 C22         -4.2974     3.0743     7.1544 C.3          1    LIG   0.0000
  23 C23         -5.7669     2.7165     7.3057 C.3          1    LIG   0.0000
  24 N24         -2.6524     3.3445     5.3588 N.ar         1    LIG   0.0000
  25 C25         -2.3018     3.3457     4.0668 C.ar         1    LIG   0.0000
  26 C26         -0.8730     3.6256     3.6200 C.3          1    LIG   0.0000
  27 N27          0.0607     0.0692     0.0083 N.2          1    LIG   0.0000
  28 C28          1.0487    -2.7013    -0.0625 C.ar         1    LIG   0.0000
  29 C29          1.5619    -3.9940    -0.0978 C.ar         1    LIG   0.0000
  30 H            0.2547     3.3242     1.8836 H            1    LIG   0.0000
  31 H           -3.5849     2.6969     1.0406 H            1    LIG   0.0000
  32 H            6.3346    -5.3489    -1.6701 H            1    LIG   0.0000
  33 H            4.9399    -5.9741    -2.2450 H            1    LIG   0.0000
  34 H            5.0529    -4.3738    -1.9405 H            1    LIG   0.0000
  35 H            5.1411    -6.4313     0.0833 H            1    LIG   0.0000
  36 H            5.2541    -4.8310     0.3878 H            1    LIG   0.0000
  37 H            4.8000    -3.2365    -0.1810 H            1    LIG   0.0000
  38 H            3.9042    -1.0137    -0.1229 H            1    LIG   0.0000
  39 H           -1.0413     3.1099    -0.3960 H            1    LIG   0.0000
  40 H           -1.9699     1.7667    -0.3838 H            1    LIG   0.0000
  41 H           -0.6555     5.0555     0.7325 H            1    LIG   0.0000
  42 H           -1.0836     5.5448     2.2305 H            1    LIG   0.0000
  43 H           -3.2216     5.1936     1.7321 H            1    LIG   0.0000
  44 H           -2.7930     4.6976     0.2364 H            1    LIG   0.0000
  45 H           -5.2516     2.5335     2.7638 H            1    LIG   0.0000
  46 H           -4.1371     3.9889     7.5257 H            1    LIG   0.0000
  47 H           -3.7397     2.4100     7.6521 H            1    LIG   0.0000
  48 H           -6.0157     2.7315     8.2742 H            1    LIG   0.0000
  49 H           -6.3247     3.3807     6.8080 H            1    LIG   0.0000
  50 H           -5.9273     1.8019     6.9345 H            1    LIG   0.0000
  51 H           -0.2616     2.9761     4.0722 H            1    LIG   0.0000
  52 H           -0.6283     4.5569     3.8897 H            1    LIG   0.0000
  53 H            0.0598    -2.5564    -0.0302 H            1    LIG   0.0000
  54 H            0.9474    -4.7828    -0.0922 H            1    LIG   0.0000
@<TRIPOS>BOND
   1        1        2 1
   2        2        3 1
   3        3        4 1
   4        4        5 ar
   5        5        6 ar
   6        6        7 ar
   7        7        8 1
   8        8        9 2
   9        9       10 1
  10       10       11 1
  11       11       12 1
  12       12       13 1
  13       13       14 1
  14       14       15 1
  15       15       16 1
  16       16       17 1
  17       17       13 1
  18       17       18 1
  19       18       19 ar
  20       19       20 ar
  21       20       21 ar
  22       21       22 1
  23       22       23 1
  24       21       24 ar
  25       24       25 ar
  26       25       18 ar
  27       25       26 1
  28       26       14 1
  29       11       27 2
  30       27        8 1
  31        7       28 ar
  32       28       29 ar
  33       29        4 ar
  34       14       30 1
  35       17       31 1
  36        1       32 1
  37        1       33 1
  38        1       34 1
  39        2       35 1
  40        2       36 1
  41        5       37 1
  42        6       38 1
  43       12       39 1
  44       12       40 1
  45       15       41 1
  46       15       42 1
  47       16       43 1
  48       16       44 1
  49       19       45 1
  50       22       46 1
  51       22       47 1
  52       23       48 1
  53       23       49 1
  54       23       50 1
  55       26       51 1
  56       26       52 1
  57       28       53 1
  58       29       54 1

@<TRIPOS>MOLECULE

  54   58
SMALL
USER_CHARGES
@<TRIPOS>ATOM
   1 C1           5.3372    -5.2842    -1.6399 C.3          1    LIG   0.0000
   2 C2           4.8569    -5.5209    -0.2174 C.3          1    LIG   0.0000
   3 O3           3.4405    -5.4290    -0.1745 O.3          1    LIG   0.0000
   4 C4           2.9400    -4.1755    -0.1410 C.ar         1    LIG   0.0000
   5 C5           3.8111    -3.0912    -0.1502 C.ar         1    LIG   0.0000
   6 C6           3.2895    -1.8024    -0.1160 C.ar         1    LIG   0.0000
   7 C7           1.9117    -1.6108    -0.0720 C.ar         1    LIG   0.0000
   8 C8           1.3773    -0.2627    -0.0370 C.2          1    LIG   0.0000
   9 N9           2.0781     0.8449    -0.0424 N.2          1    LIG   0.0000
  10 O10          1.2672     1.8158    -0.0083 O.2          1    LIG   0.0000
  11 C11          0.0319     1.3792     0.0236 C.2          1    LIG   0.0000
  12 C12         -1.2175     2.2433     0.0709 C.3          1    LIG   0.0000
  13 N13         -1.6634     2.5390    -1.3043 N.3          1    LIG   0.0000
  14 C14         -2.9350     3.2708    -1.3494 C.3          1    LIG   0.0000
  15 C15         -2.5468     4.6851    -0.9697 C.3          1    LIG   0.0000
  16 C16         -1.0993     4.7998    -1.4076 C.3          1    LIG   0.0000
  17 C17         -0.7636     3.4488    -2.0113 C.3          1    LIG   0.0000
  18 C18         -1.1728     3.4318    -3.4747 C.ar         1    LIG   0.0000
  19 C19         -0.1837     3.4105    -4.4477 C.ar         1    LIG   0.0000
  20 N20         -0.5892     3.4325    -5.7238 N.ar         1    LIG   0.0000
  21 C21         -1.8890     3.4789    -6.0520 C.ar         1    LIG   0.0000
  22 C22         -2.3016     3.5418    -7.5115 C.3          1    LIG   0.0000
  23 C23         -1.0609     3.5321    -8.3895 C.3          1    LIG   0.0000
  24 N24         -2.8594     3.4784    -5.1264 N.ar         1    LIG   0.0000
  25 C25         -2.5173     3.4392    -3.8328 C.ar         1    LIG   0.0000
  26 C26         -3.5608     3.3922    -2.7245 C.3          1    LIG   0.0000
  27 N27          0.0607     0.0692     0.0083 N.2          1    LIG   0.0000
  28 C28          1.0487    -2.7013    -0.0625 C.ar         1    LIG   0.0000
  29 C29          1.5619    -3.9940    -0.0978 C.ar         1    LIG   0.0000
  30 H           -3.5875     2.8921    -0.6931 H            1    LIG   0.0000
  31 H            0.1980     3.2054    -1.8840 H            1    LIG   0.0000
  32 H            6.3346    -5.3489    -1.6701 H            1    LIG   0.0000
  33 H            4.9399    -5.9741    -2.2450 H            1    LIG   0.0000
  34 H            5.0529    -4.3738    -1.9405 H            1    LIG   0.0000
  35 H            5.1411    -6.4313     0.0833 H            1    LIG   0.0000
  36 H            5.2541    -4.8310     0.3878 H            1    LIG   0.0000
  37 H            4.8000    -3.2365    -0.1810 H            1    LIG   0.0000
  38 H            3.9042    -1.0137    -0.1229 H            1    LIG   0.0000
  39 H           -1.9417     1.7558     0.5586 H            1    LIG   0.0000
  40 H           -1.0131     3.0990     0.5463 H            1    LIG   0.0000
  41 H           -2.6314     4.8240     0.0170 H            1    LIG   0.0000
  42 H           -3.1171     5.3512    -1.4503 H            1    LIG   0.0000
  43 H           -0.9944     5.5248    -2.0883 H            1    LIG   0.0000
  44 H           -0.5089     4.9909    -0.6235 H            1    LIG   0.0000
  45 H            0.7865     3.3800    -4.2072 H            1    LIG   0.0000
  46 H           -2.8195     4.3814    -7.6755 H            1    LIG   0.0000
  47 H           -2.8716     2.7502    -7.7311 H            1    LIG   0.0000
  48 H           -1.3327     3.5736    -9.3510 H            1    LIG   0.0000
  49 H           -0.4908     4.3238    -8.1698 H            1    LIG   0.0000
  50 H           -0.5429     2.6926    -8.2254 H            1    LIG   0.0000
  51 H           -4.1568     2.6039    -2.8772 H            1    LIG   0.0000
  52 H           -4.1033     4.2316    -2.7578 H            1    LIG   0.0000
  53 H            0.0598    -2.5564    -0.0302 H            1    LIG   0.0000
  54 H            0.9474    -4.7828    -0.0922 H            1    LIG   0.0000
@<TRIPOS>BOND
   1        1        2 1
   2        2        3 1
   3        3        4 1
   4        4        5 ar
   5        5        6 ar
   6        6        7 ar
   7        7        8 1
   8        8        9 2
   9        9       10 1
  10       10       11 1
  11       11       12 1
  12       12       13 1
  13       13       14 1
  14       14       15 1
  15       15       16 1
  16       16       17 1
  17       17       13 1
  18       17       18 1
  19       18       19 ar
  20       19       20 ar
  21       20       21 ar
  22       21       22 1
  23       22       23 1
  24       21       24 ar
  25       24       25 ar
  26       25       18 ar
  27       25       26 1
  28       26       14 1
  29       11       27 2
  30       27        8 1
  31        7       28 ar
  32       28       29 ar
  33       29        4 ar
  34       14       30 1
  35       17       31 1
  36        1       32 1
  37        1       33 1
  38        1       34 1
  39        2       35 1
  40        2       36 1
  41        5       37 1
  42        6       38 1
  43       12       39 1
  44       12       40 1
  45       15       41 1
  46       15       42 1
  47       16       43 1
  48       16       44 1
  49       19       45 1
  50       22       46 1
  51       22       47 1
  52       23       48 1
  53       23       49 1
  54       23       50 1
  55       26       51 1
  56       26       52 1
  57       28       53 1
  58       29       54 1

@<TRIPOS>MOLECULE

  54   58
SMALL
USER_CHARGES
@<TRIPOS>ATOM
   1 C1           5.3372    -5.2842    -1.6399 C.3          1    LIG   0.0000
   2 C2           4.8569    -5.5209    -0.2174 C.3          1    LIG   0.0000
   3 O3           3.4405    -5.4290    -0.1745 O.3          1    LIG   0.0000
   4 C4           2.9400    -4.1755    -0.1410 C.ar         1    LIG   0.0000
   5 C5           3.8111    -3.0912    -0.1502 C.ar         1    LIG   0.0000
   6 C6           3.2895    -1.8024    -0.1160 C.ar         1    LIG   0.0000
   7 C7           1.9117    -1.6108    -0.0720 C.ar         1    LIG   0.0000
   8 C8           1.3773    -0.2627    -0.0370 C.2          1    LIG   0.0000
   9 N9           2.0781     0.8449    -0.0424 N.2          1    LIG   0.0000
  10 O10          1.2672     1.8158    -0.0083 O.2          1    LIG   0.0000
  11 C11          0.0319     1.3792     0.0236 C.2          1    LIG   0.0000
  12 C12         -1.2175     2.2433     0.0709 C.3          1    LIG   0.0000
  13 N13         -1.6634     2.5390    -1.3043 N.3          1    LIG   0.0000
  14 C14         -2.3085     1.3930    -1.9562 C.3          1    LIG   0.0000
  15 C15         -3.6823     1.3466    -1.3193 C.3          1    LIG   0.0000
  16 C16         -3.9502     2.7840    -0.9166 C.3          1    LIG   0.0000
  17 C17         -2.7170     3.5512    -1.3559 C.3          1    LIG   0.0000
  18 C18         -2.8679     3.9631    -2.8108 C.ar         1    LIG   0.0000
  19 C19         -3.0422     5.3061    -3.1132 C.ar         1    LIG   0.0000
  20 N20         -3.2070     5.6194    -4.4048 N.ar         1    LIG   0.0000
  21 C21         -3.2102     4.6826    -5.3648 C.ar         1    LIG   0.0000
  22 C22         -3.4394     5.0795    -6.8119 C.3          1    LIG   0.0000
  23 C23         -3.6292     6.5850    -6.9003 C.3          1    LIG   0.0000
  24 N24         -3.0219     3.3827    -5.0943 N.ar         1    LIG   0.0000
  25 C25         -2.8336     3.0088    -3.8228 C.ar         1    LIG   0.0000
  26 C26         -2.5701     1.5584    -3.4400 C.3          1    LIG   0.0000
  27 N27          0.0607     0.0692     0.0083 N.2          1    LIG   0.0000
  28 C28          1.0487    -2.7013    -0.0625 C.ar         1    LIG   0.0000
  29 C29          1.5619    -3.9940    -0.0978 C.ar         1    LIG   0.0000
  30 H           -1.8032     0.5493    -1.7754 H            1    LIG   0.0000
  31 H           -2.5233     4.3303    -0.7597 H            1    LIG   0.0000
  32 H            6.3346    -5.3489    -1.6701 H            1    LIG   0.0000
  33 H            4.9399    -5.9741    -2.2450 H            1    LIG   0.0000
  34 H            5.0529    -4.3738    -1.9405 H            1    LIG   0.0000
  35 H            5.1411    -6.4313     0.0833 H            1    LIG   0.0000
  36 H            5.2541    -4.8310     0.3878 H            1    LIG   0.0000
  37 H            4.8000    -3.2365    -0.1810 H            1    LIG   0.0000
  38 H            3.9042    -1.0137    -0.1229 H            1    LIG   0.0000
  39 H           -1.9417     1.7558     0.5586 H            1    LIG   0.0000
  40 H           -1.0131     3.0990     0.5463 H            1    LIG   0.0000
  41 H           -3.6826     0.7474    -0.5187 H            1    LIG   0.0000
  42 H           -4.3671     1.0277    -1.9746 H            1    LIG   0.0000
  43 H           -4.7648     3.1329    -1.3801 H            1    LIG   0.0000
  44 H           -4.0740     2.8545     0.0732 H            1    LIG   0.0000
  45 H           -3.0446     6.0071    -2.4001 H            1    LIG   0.0000
  46 H           -4.2570     4.6195    -7.1582 H            1    LIG   0.0000
  47 H           -2.6479     4.8105    -7.3607 H            1    LIG   0.0000
  48 H           -3.7802     6.8465    -7.8537 H            1    LIG   0.0000
  49 H           -4.4207     6.8540    -6.3515 H            1    LIG   0.0000
  50 H           -2.8116     7.0450    -6.5540 H            1    LIG   0.0000
  51 H           -1.7713     1.2325    -3.9456 H            1    LIG   0.0000
  52 H           -3.3686     1.0101    -3.6888 H            1    LIG   0.0000
  53 H            0.0598    -2.5564    -0.0302 H            1    LIG   0.0000
  54 H            0.9474    -4.7828    -0.0922 H            1    LIG   0.0000
@<TRIPOS>BOND
   1        1        2 1
   2        2        3 1
   3        3        4 1
   4        4        5 ar
   5        5        6 ar
   6        6        7 ar
   7        7        8 1
   8        8        9 2
   9        9       10 1
  10       10       11 1
  11       11       12 1
  12       12       13 1
  13       13       14 1
  14       14       15 1
  15       15       16 1
  16       16       17 1
  17       17       13 1
  18       17       18 1
  19       18       19 ar
  20       19       20 ar
  21       20       21 ar
  22       21       22 1
  23       22       23 1
  24       21       24 ar
  25       24       25 ar
  26       25       18 ar
  27       25       26 1
  28       26       14 1
  29       11       27 2
  30       27        8 1
  31        7       28 ar
  32       28       29 ar
  33       29        4 ar
  34       14       30 1
  35       17       31 1
  36        1       32 1
  37        1       33 1
  38        1       34 1
  39        2       35 1
  40        2       36 1
  41        5       37 1
  42        6       38 1
  43       12       39 1
  44       12       40 1
  45       15       41 1
  46       15       42 1
  47       16       43 1
  48       16       44 1
  49       19       45 1
  50       22       46 1
  51       22       47 1
  52       23       48 1
  53       23       49 1
  54       23       50 1
  55       26       51 1
  56       26       52 1
  57       28       53 1
  58       29       54 1

