@<TRIPOS>MOLECULE
*****
 54 58 0 0 0
SMALL
USER_CHARGES

@<TRIPOS>ATOM
      1 C1          3.1857   -7.8165   -0.2030 C.3     1  LIG1        0.0000
      2 C2          2.4773   -6.4723   -0.1620 C.3     1  LIG1        0.0000
      3 O3          3.4405   -5.4290   -0.1745 O.3     1  LIG1        0.0000
      4 C4          2.9400   -4.1755   -0.1410 C.ar    1  LIG1        0.0000
      5 C5          3.8111   -3.0912   -0.1502 C.ar    1  LIG1        0.0000
      6 C6          3.2895   -1.8024   -0.1160 C.ar    1  LIG1        0.0000
      7 C7          1.9117   -1.6108   -0.0720 C.ar    1  LIG1        0.0000
      8 C8          1.3773   -0.2627   -0.0370 C.2     1  LIG1        0.0000
      9 N9          2.0781    0.8449   -0.0424 N.2     1  LIG1        0.0000
     10 O10         1.2672    1.8158   -0.0083 O.2     1  LIG1        0.0000
     11 C11         0.0319    1.3792    0.0236 C.2     1  LIG1        0.0000
     12 C12        -1.2175    2.2433    0.0709 C.3     1  LIG1        0.0000
     13 N13        -1.5803    2.5070    1.4769 N.3     1  LIG1        0.0000
     14 C14        -0.5132    3.1187    2.2724 C.3     1  LIG1        0.0000
     15 C15        -0.5052    4.5384    1.7314 C.3     1  LIG1        0.0000
     16 C16        -1.9344    4.8214    1.3055 C.3     1  LIG1        0.0000
     17 C17        -2.6323    3.5202    1.6260 C.3     1  LIG1        0.0000
     18 C18        -3.0186    3.8386    3.0601 C.ar    1  LIG1        0.0000
     19 C19        -4.2578    4.4047    3.3349 C.ar    1  LIG1        0.0000
     20 N20        -4.5357    4.7161    4.6067 N.ar    1  LIG1        0.0000
     21 C21        -3.6658    4.5076    5.6069 C.ar    1  LIG1        0.0000
     22 C22        -4.0313    4.9151    7.0249 C.3     1  LIG1        0.0000
     23 C23        -5.4242    5.5235    7.0341 C.3     1  LIG1        0.0000
     24 N24        -2.4788    3.9435    5.3387 N.ar    1  LIG1        0.0000
     25 C25        -2.1341    3.5763    4.0962 C.ar    1  LIG1        0.0000
     26 C26        -0.8089    2.9118    3.7500 C.3     1  LIG1        0.0000
     27 N27         0.0607    0.0692    0.0083 N.2     1  LIG1        0.0000
     28 C28         1.0487   -2.7013   -0.0625 C.ar    1  LIG1        0.0000
     29 C29         1.5619   -3.9940   -0.0978 C.ar    1  LIG1        0.0000
     30 H           0.3559    2.6781    2.0478 H       1  LIG1        0.0000
     31 H          -3.4235    3.3485    1.0391 H       1  LIG1        0.0000
     32 H           2.5074   -8.5512   -0.1942 H       1  LIG1        0.0000
     33 H           3.7340   -7.8790   -1.0369 H       1  LIG1        0.0000
     34 H           3.7818   -7.9036    0.5952 H       1  LIG1        0.0000
     35 H           1.8812   -6.3852   -0.9602 H       1  LIG1        0.0000
     36 H           1.9289   -6.4098    0.6719 H       1  LIG1        0.0000
     37 H           4.8000   -3.2365   -0.1810 H       1  LIG1        0.0000
     38 H           3.9042   -1.0137   -0.1229 H       1  LIG1        0.0000
     39 H          -1.0413    3.1099   -0.3960 H       1  LIG1        0.0000
     40 H          -1.9699    1.7667   -0.3838 H       1  LIG1        0.0000
     41 H           0.1129    4.6102    0.9487 H       1  LIG1        0.0000
     42 H          -0.2192    5.1811    2.4422 H       1  LIG1        0.0000
     43 H          -2.3244    5.5794    1.8283 H       1  LIG1        0.0000
     44 H          -1.9864    5.0287    0.3286 H       1  LIG1        0.0000
     45 H          -4.9208    4.5741    2.6056 H       1  LIG1        0.0000
     46 H          -3.3714    5.5882    7.3589 H       1  LIG1        0.0000
     47 H          -4.0153    4.1100    7.6177 H       1  LIG1        0.0000
     48 H          -5.6647    5.7916    7.9670 H       1  LIG1        0.0000
     49 H          -5.4402    6.3287    6.4412 H       1  LIG1        0.0000
     50 H          -6.0841    4.8505    6.7001 H       1  LIG1        0.0000
     51 H          -0.8651    1.9327    3.9454 H       1  LIG1        0.0000
     52 H          -0.0778    3.3195    4.2971 H       1  LIG1        0.0000
     53 H           0.0598   -2.5564   -0.0302 H       1  LIG1        0.0000
     54 H           0.9474   -4.7828   -0.0922 H       1  LIG1        0.0000
@<TRIPOS>BOND
     1     1     2    1
     2     2     3    1
     3     3     4    1
     4     4     5   ar
     5     5     6   ar
     6     6     7   ar
     7     7     8    1
     8     8     9    2
     9     9    10    1
    10    10    11    1
    11    11    12    1
    12    12    13    1
    13    13    14    1
    14    14    15    1
    15    15    16    1
    16    16    17    1
    17    17    13    1
    18    17    18    1
    19    18    19   ar
    20    19    20   ar
    21    20    21   ar
    22    21    22    1
    23    22    23    1
    24    21    24   ar
    25    24    25   ar
    26    25    18   ar
    27    25    26    1
    28    26    14    1
    29    11    27    2
    30    27     8    1
    31     7    28   ar
    32    28    29   ar
    33    29     4   ar
    34    14    30    1
    35    17    31    1
    36     1    32    1
    37     1    33    1
    38     1    34    1
    39     2    35    1
    40     2    36    1
    41     5    37    1
    42     6    38    1
    43    12    39    1
    44    12    40    1
    45    15    41    1
    46    15    42    1
    47    16    43    1
    48    16    44    1
    49    19    45    1
    50    22    46    1
    51    22    47    1
    52    23    48    1
    53    23    49    1
    54    23    50    1
    55    26    51    1
    56    26    52    1
    57    28    53    1
    58    29    54    1
