@<TRIPOS>MOLECULE
*****
 54 58 0 0 0
SMALL
USER_CHARGES

@<TRIPOS>ATOM
      1 C1          3.1857   -7.8165   -0.2030 C.3     1  LIG1        0.0000
      2 C2          2.4773   -6.4723   -0.1620 C.3     1  LIG1        0.0000
      3 O3          3.4405   -5.4290   -0.1745 O.3     1  LIG1        0.0000
      4 C4          2.9400   -4.1755   -0.1410 C.ar    1  LIG1        0.0000
      5 C5          3.8111   -3.0912   -0.1502 C.ar    1  LIG1        0.0000
      6 C6          3.2895   -1.8024   -0.1160 C.ar    1  LIG1        0.0000
      7 C7          1.9117   -1.6108   -0.0720 C.ar    1  LIG1        0.0000
      8 C8          1.3773   -0.2627   -0.0370 C.2     1  LIG1        0.0000
      9 N9          2.0781    0.8449   -0.0424 N.2     1  LIG1        0.0000
     10 O10         1.2672    1.8158   -0.0083 O.2     1  LIG1        0.0000
     11 C11         0.0319    1.3792    0.0236 C.2     1  LIG1        0.0000
     12 C12        -1.2175    2.2433    0.0709 C.3     1  LIG1        0.0000
     13 N13        -1.6628    2.5386   -1.3025 N.3     1  LIG1        0.0000
     14 C14        -0.5771    2.9557   -2.1897 C.3     1  LIG1        0.0000
     15 C15         0.1043    1.6577   -2.5937 C.3     1  LIG1        0.0000
     16 C16        -0.9439    0.5859   -2.3124 C.3     1  LIG1        0.0000
     17 C17        -2.2086    1.3771   -2.0146 C.3     1  LIG1        0.0000
     18 C18        -2.5928    1.5872   -3.4701 C.ar    1  LIG1        0.0000
     19 C19        -3.4671    0.7401   -4.1361 C.ar    1  LIG1        0.0000
     20 N20        -3.7112    0.9763   -5.4332 N.ar    1  LIG1        0.0000
     21 C21        -3.1405    1.9878   -6.1061 C.ar    1  LIG1        0.0000
     22 C22        -3.4387    2.1934   -7.5819 C.3     1  LIG1        0.0000
     23 C23        -4.4072    1.1226   -8.0571 C.3     1  LIG1        0.0000
     24 N24        -2.3062    2.8141   -5.4578 N.ar    1  LIG1        0.0000
     25 C25        -2.0329    2.6509   -4.1579 C.ar    1  LIG1        0.0000
     26 C26        -1.1029    3.6237   -3.4460 C.3     1  LIG1        0.0000
     27 N27         0.0607    0.0692    0.0083 N.2     1  LIG1        0.0000
     28 C28         1.0487   -2.7013   -0.0625 C.ar    1  LIG1        0.0000
     29 C29         1.5619   -3.9940   -0.0978 C.ar    1  LIG1        0.0000
     30 H           0.0618    3.5567   -1.7096 H       1  LIG1        0.0000
     31 H          -2.8885    0.8659   -1.4888 H       1  LIG1        0.0000
     32 H           2.5074   -8.5512   -0.1942 H       1  LIG1        0.0000
     33 H           3.7340   -7.8790   -1.0369 H       1  LIG1        0.0000
     34 H           3.7818   -7.9036    0.5952 H       1  LIG1        0.0000
     35 H           1.8812   -6.3852   -0.9602 H       1  LIG1        0.0000
     36 H           1.9289   -6.4098    0.6719 H       1  LIG1        0.0000
     37 H           4.8000   -3.2365   -0.1810 H       1  LIG1        0.0000
     38 H           3.9042   -1.0137   -0.1229 H       1  LIG1        0.0000
     39 H          -1.9417    1.7558    0.5586 H       1  LIG1        0.0000
     40 H          -1.0131    3.0990    0.5463 H       1  LIG1        0.0000
     41 H           0.9266    1.5027   -2.0462 H       1  LIG1        0.0000
     42 H           0.3473    1.6710   -3.5637 H       1  LIG1        0.0000
     43 H          -1.0728   -0.0032   -3.1101 H       1  LIG1        0.0000
     44 H          -0.6798    0.0284   -1.5254 H       1  LIG1        0.0000
     45 H          -3.9030   -0.0249   -3.6619 H       1  LIG1        0.0000
     46 H          -2.5891    2.1306   -8.1056 H       1  LIG1        0.0000
     47 H          -3.8475    3.0961   -7.7168 H       1  LIG1        0.0000
     48 H          -4.6034    1.2580   -9.0283 H       1  LIG1        0.0000
     49 H          -3.9985    0.2200   -7.9223 H       1  LIG1        0.0000
     50 H          -5.2568    1.1855   -7.5335 H       1  LIG1        0.0000
     51 H          -1.6052    4.4532   -3.2018 H       1  LIG1        0.0000
     52 H          -0.3393    3.8611   -4.0465 H       1  LIG1        0.0000
     53 H           0.0598   -2.5564   -0.0302 H       1  LIG1        0.0000
     54 H           0.9474   -4.7828   -0.0922 H       1  LIG1        0.0000
@<TRIPOS>BOND
     1     1     2    1
     2     2     3    1
     3     3     4    1
     4     4     5   ar
     5     5     6   ar
     6     6     7   ar
     7     7     8    1
     8     8     9    2
     9     9    10    1
    10    10    11    1
    11    11    12    1
    12    12    13    1
    13    13    14    1
    14    14    15    1
    15    15    16    1
    16    16    17    1
    17    17    13    1
    18    17    18    1
    19    18    19   ar
    20    19    20   ar
    21    20    21   ar
    22    21    22    1
    23    22    23    1
    24    21    24   ar
    25    24    25   ar
    26    25    18   ar
    27    25    26    1
    28    26    14    1
    29    11    27    2
    30    27     8    1
    31     7    28   ar
    32    28    29   ar
    33    29     4   ar
    34    14    30    1
    35    17    31    1
    36     1    32    1
    37     1    33    1
    38     1    34    1
    39     2    35    1
    40     2    36    1
    41     5    37    1
    42     6    38    1
    43    12    39    1
    44    12    40    1
    45    15    41    1
    46    15    42    1
    47    16    43    1
    48    16    44    1
    49    19    45    1
    50    22    46    1
    51    22    47    1
    52    23    48    1
    53    23    49    1
    54    23    50    1
    55    26    51    1
    56    26    52    1
    57    28    53    1
    58    29    54    1
