@<TRIPOS>MOLECULE
*****
 54 58 0 0 0
SMALL
USER_CHARGES

@<TRIPOS>ATOM
      1 C1          5.4197   -5.3266    1.1812 C.3     1  LIG1        0.0000
      2 C2          4.8569   -5.5209   -0.2174 C.3     1  LIG1        0.0000
      3 O3          3.4405   -5.4290   -0.1745 O.3     1  LIG1        0.0000
      4 C4          2.9400   -4.1755   -0.1410 C.ar    1  LIG1        0.0000
      5 C5          3.8111   -3.0912   -0.1502 C.ar    1  LIG1        0.0000
      6 C6          3.2895   -1.8024   -0.1160 C.ar    1  LIG1        0.0000
      7 C7          1.9117   -1.6108   -0.0720 C.ar    1  LIG1        0.0000
      8 C8          1.3773   -0.2627   -0.0370 C.2     1  LIG1        0.0000
      9 N9          2.0781    0.8449   -0.0424 N.2     1  LIG1        0.0000
     10 O10         1.2672    1.8158   -0.0083 O.2     1  LIG1        0.0000
     11 C11         0.0319    1.3792    0.0236 C.2     1  LIG1        0.0000
     12 C12        -1.2175    2.2433    0.0709 C.3     1  LIG1        0.0000
     13 N13        -1.6635    2.5391   -1.3045 N.3     1  LIG1        0.0000
     14 C14        -2.9193    3.2888   -1.3851 C.3     1  LIG1        0.0000
     15 C15        -2.4755    4.6747   -0.9481 C.3     1  LIG1        0.0000
     16 C16        -1.0276    4.7974   -1.3870 C.3     1  LIG1        0.0000
     17 C17        -0.7663    3.4521   -2.0233 C.3     1  LIG1        0.0000
     18 C18        -1.2024    3.8013   -3.4358 C.ar    1  LIG1        0.0000
     19 C19        -0.2673    4.2581   -4.3571 C.ar    1  LIG1        0.0000
     20 N20        -0.7046    4.6029   -5.5743 N.ar    1  LIG1        0.0000
     21 C21        -1.9979    4.5282   -5.9240 C.ar    1  LIG1        0.0000
     22 C22        -2.4328    4.9673   -7.3127 C.3     1  LIG1        0.0000
     23 C23        -3.9358    4.7891   -7.4530 C.3     1  LIG1        0.0000
     24 N24        -2.8931    4.0688   -5.0370 N.ar    1  LIG1        0.0000
     25 C25        -2.5333    3.6765   -3.8066 C.ar    1  LIG1        0.0000
     26 C26        -3.5107    3.1267   -2.7769 C.3     1  LIG1        0.0000
     27 N27         0.0607    0.0692    0.0083 N.2     1  LIG1        0.0000
     28 C28         1.0487   -2.7013   -0.0625 C.ar    1  LIG1        0.0000
     29 C29         1.5619   -3.9940   -0.0978 C.ar    1  LIG1        0.0000
     30 H          -3.5621    2.9236   -0.7118 H       1  LIG1        0.0000
     31 H           0.1935    3.1765   -1.9696 H       1  LIG1        0.0000
     32 H           6.4172   -5.3913    1.1510 H       1  LIG1        0.0000
     33 H           5.1543   -4.4259    1.5251 H       1  LIG1        0.0000
     34 H           5.0579   -6.0348    1.7875 H       1  LIG1        0.0000
     35 H           5.2186   -4.8127   -0.8236 H       1  LIG1        0.0000
     36 H           5.1222   -6.4216   -0.5613 H       1  LIG1        0.0000
     37 H           4.8000   -3.2365   -0.1810 H       1  LIG1        0.0000
     38 H           3.9042   -1.0137   -0.1229 H       1  LIG1        0.0000
     39 H          -1.9417    1.7558    0.5586 H       1  LIG1        0.0000
     40 H          -1.0131    3.0990    0.5463 H       1  LIG1        0.0000
     41 H          -2.5483    4.7674    0.0449 H       1  LIG1        0.0000
     42 H          -3.0349    5.3758   -1.3902 H       1  LIG1        0.0000
     43 H          -0.9116    5.5388   -2.0479 H       1  LIG1        0.0000
     44 H          -0.4242    4.9508   -0.6045 H       1  LIG1        0.0000
     45 H           0.7013    4.3270   -4.1182 H       1  LIG1        0.0000
     46 H          -1.9656    4.4109   -7.9998 H       1  LIG1        0.0000
     47 H          -2.1973    5.9299   -7.4470 H       1  LIG1        0.0000
     48 H          -4.2219    5.0779   -8.3666 H       1  LIG1        0.0000
     49 H          -4.1713    3.8265   -7.3187 H       1  LIG1        0.0000
     50 H          -4.4030    5.3455   -6.7659 H       1  LIG1        0.0000
     51 H          -3.6769    2.1575   -2.9584 H       1  LIG1        0.0000
     52 H          -4.3734    3.6292   -2.8338 H       1  LIG1        0.0000
     53 H           0.0598   -2.5564   -0.0302 H       1  LIG1        0.0000
     54 H           0.9474   -4.7828   -0.0922 H       1  LIG1        0.0000
@<TRIPOS>BOND
     1     1     2    1
     2     2     3    1
     3     3     4    1
     4     4     5   ar
     5     5     6   ar
     6     6     7   ar
     7     7     8    1
     8     8     9    2
     9     9    10    1
    10    10    11    1
    11    11    12    1
    12    12    13    1
    13    13    14    1
    14    14    15    1
    15    15    16    1
    16    16    17    1
    17    17    13    1
    18    17    18    1
    19    18    19   ar
    20    19    20   ar
    21    20    21   ar
    22    21    22    1
    23    22    23    1
    24    21    24   ar
    25    24    25   ar
    26    25    18   ar
    27    25    26    1
    28    26    14    1
    29    11    27    2
    30    27     8    1
    31     7    28   ar
    32    28    29   ar
    33    29     4   ar
    34    14    30    1
    35    17    31    1
    36     1    32    1
    37     1    33    1
    38     1    34    1
    39     2    35    1
    40     2    36    1
    41     5    37    1
    42     6    38    1
    43    12    39    1
    44    12    40    1
    45    15    41    1
    46    15    42    1
    47    16    43    1
    48    16    44    1
    49    19    45    1
    50    22    46    1
    51    22    47    1
    52    23    48    1
    53    23    49    1
    54    23    50    1
    55    26    51    1
    56    26    52    1
    57    28    53    1
    58    29    54    1
