@<TRIPOS>MOLECULE
*****
 54 58 0 0 0
SMALL
USER_CHARGES

@<TRIPOS>ATOM
      1 C1          5.4197   -5.3266    1.1812 C.3     1  LIG1        0.0000
      2 C2          4.8569   -5.5209   -0.2174 C.3     1  LIG1        0.0000
      3 O3          3.4405   -5.4290   -0.1745 O.3     1  LIG1        0.0000
      4 C4          2.9400   -4.1755   -0.1410 C.ar    1  LIG1        0.0000
      5 C5          3.8111   -3.0912   -0.1502 C.ar    1  LIG1        0.0000
      6 C6          3.2895   -1.8024   -0.1160 C.ar    1  LIG1        0.0000
      7 C7          1.9117   -1.6108   -0.0720 C.ar    1  LIG1        0.0000
      8 C8          1.3773   -0.2627   -0.0370 C.2     1  LIG1        0.0000
      9 N9          2.0781    0.8449   -0.0424 N.2     1  LIG1        0.0000
     10 O10         1.2672    1.8158   -0.0083 O.2     1  LIG1        0.0000
     11 C11         0.0319    1.3792    0.0236 C.2     1  LIG1        0.0000
     12 C12        -1.2175    2.2433    0.0709 C.3     1  LIG1        0.0000
     13 N13        -1.5802    2.5070    1.4767 N.3     1  LIG1        0.0000
     14 C14        -2.7090    3.4354    1.6126 C.3     1  LIG1        0.0000
     15 C15        -3.9140    2.5861    1.2639 C.3     1  LIG1        0.0000
     16 C16        -3.4900    1.1770    1.6310 C.3     1  LIG1        0.0000
     17 C17        -2.0782    1.3193    2.1685 C.3     1  LIG1        0.0000
     18 C18        -2.1313    1.6560    3.6494 C.ar    1  LIG1        0.0000
     19 C19        -1.7139    0.7045    4.5691 C.ar    1  LIG1        0.0000
     20 N20        -1.8117    1.0305    5.8643 N.ar    1  LIG1        0.0000
     21 C21        -2.2952    2.2176    6.2600 C.ar    1  LIG1        0.0000
     22 C22        -2.4243    2.5294    7.7400 C.3     1  LIG1        0.0000
     23 C23        -3.0006    3.9249    7.9154 C.3     1  LIG1        0.0000
     24 N24        -2.6831    3.1577    5.3859 N.ar    1  LIG1        0.0000
     25 C25        -2.5925    2.8975    4.0759 C.ar    1  LIG1        0.0000
     26 C26        -2.9721    3.9288    3.0214 C.3     1  LIG1        0.0000
     27 N27         0.0607    0.0692    0.0083 N.2     1  LIG1        0.0000
     28 C28         1.0487   -2.7013   -0.0625 C.ar    1  LIG1        0.0000
     29 C29         1.5619   -3.9940   -0.0978 C.ar    1  LIG1        0.0000
     30 H          -2.6179    4.2025    0.9776 H       1  LIG1        0.0000
     31 H          -1.5192    0.5110    1.9836 H       1  LIG1        0.0000
     32 H           6.4172   -5.3913    1.1510 H       1  LIG1        0.0000
     33 H           5.1543   -4.4259    1.5251 H       1  LIG1        0.0000
     34 H           5.0579   -6.0348    1.7875 H       1  LIG1        0.0000
     35 H           5.2186   -4.8127   -0.8236 H       1  LIG1        0.0000
     36 H           5.1222   -6.4216   -0.5613 H       1  LIG1        0.0000
     37 H           4.8000   -3.2365   -0.1810 H       1  LIG1        0.0000
     38 H           3.9042   -1.0137   -0.1229 H       1  LIG1        0.0000
     39 H          -1.0413    3.1099   -0.3960 H       1  LIG1        0.0000
     40 H          -1.9699    1.7667   -0.3838 H       1  LIG1        0.0000
     41 H          -4.1242    2.6511    0.2884 H       1  LIG1        0.0000
     42 H          -4.7126    2.8668    1.7963 H       1  LIG1        0.0000
     43 H          -4.0960    0.7986    2.3307 H       1  LIG1        0.0000
     44 H          -3.5013    0.5853    0.8249 H       1  LIG1        0.0000
     45 H          -1.3567   -0.1832    4.2783 H       1  LIG1        0.0000
     46 H          -1.5226    2.4846    8.1700 H       1  LIG1        0.0000
     47 H          -3.0320    1.8613    8.1696 H       1  LIG1        0.0000
     48 H          -3.0857    4.1302    8.8904 H       1  LIG1        0.0000
     49 H          -2.3930    4.5929    7.4858 H       1  LIG1        0.0000
     50 H          -3.9023    3.9696    7.4854 H       1  LIG1        0.0000
     51 H          -2.4368    4.7592    3.1765 H       1  LIG1        0.0000
     52 H          -3.9457    4.1381    3.1122 H       1  LIG1        0.0000
     53 H           0.0598   -2.5564   -0.0302 H       1  LIG1        0.0000
     54 H           0.9474   -4.7828   -0.0922 H       1  LIG1        0.0000
@<TRIPOS>BOND
     1     1     2    1
     2     2     3    1
     3     3     4    1
     4     4     5   ar
     5     5     6   ar
     6     6     7   ar
     7     7     8    1
     8     8     9    2
     9     9    10    1
    10    10    11    1
    11    11    12    1
    12    12    13    1
    13    13    14    1
    14    14    15    1
    15    15    16    1
    16    16    17    1
    17    17    13    1
    18    17    18    1
    19    18    19   ar
    20    19    20   ar
    21    20    21   ar
    22    21    22    1
    23    22    23    1
    24    21    24   ar
    25    24    25   ar
    26    25    18   ar
    27    25    26    1
    28    26    14    1
    29    11    27    2
    30    27     8    1
    31     7    28   ar
    32    28    29   ar
    33    29     4   ar
    34    14    30    1
    35    17    31    1
    36     1    32    1
    37     1    33    1
    38     1    34    1
    39     2    35    1
    40     2    36    1
    41     5    37    1
    42     6    38    1
    43    12    39    1
    44    12    40    1
    45    15    41    1
    46    15    42    1
    47    16    43    1
    48    16    44    1
    49    19    45    1
    50    22    46    1
    51    22    47    1
    52    23    48    1
    53    23    49    1
    54    23    50    1
    55    26    51    1
    56    26    52    1
    57    28    53    1
    58    29    54    1
