@<TRIPOS>MOLECULE
*****
 54 58 0 0 0
SMALL
USER_CHARGES

@<TRIPOS>ATOM
      1 C1          3.1857   -7.8165   -0.2030 C.3     1  LIG1        0.0000
      2 C2          2.4773   -6.4723   -0.1620 C.3     1  LIG1        0.0000
      3 O3          3.4405   -5.4290   -0.1745 O.3     1  LIG1        0.0000
      4 C4          2.9400   -4.1755   -0.1410 C.ar    1  LIG1        0.0000
      5 C5          3.8111   -3.0912   -0.1502 C.ar    1  LIG1        0.0000
      6 C6          3.2895   -1.8024   -0.1160 C.ar    1  LIG1        0.0000
      7 C7          1.9117   -1.6108   -0.0720 C.ar    1  LIG1        0.0000
      8 C8          1.3773   -0.2627   -0.0370 C.2     1  LIG1        0.0000
      9 N9          2.0781    0.8449   -0.0424 N.2     1  LIG1        0.0000
     10 O10         1.2672    1.8158   -0.0083 O.2     1  LIG1        0.0000
     11 C11         0.0319    1.3792    0.0236 C.2     1  LIG1        0.0000
     12 C12        -1.2175    2.2433    0.0709 C.3     1  LIG1        0.0000
     13 N13        -1.5798    2.5066    1.4749 N.3     1  LIG1        0.0000
     14 C14        -1.5426    1.3129    2.3195 C.3     1  LIG1        0.0000
     15 C15        -0.0690    1.1204    2.6420 C.3     1  LIG1        0.0000
     16 C16         0.5500    2.4890    2.3769 C.3     1  LIG1        0.0000
     17 C17        -0.6494    3.4022    2.1723 C.3     1  LIG1        0.0000
     18 C18        -0.9063    3.6355    3.6522 C.ar    1  LIG1        0.0000
     19 C19        -0.3877    4.7286    4.3316 C.ar    1  LIG1        0.0000
     20 N20        -0.6279    4.8274    5.6471 N.ar    1  LIG1        0.0000
     21 C21        -1.3384    3.9126    6.3253 C.ar    1  LIG1        0.0000
     22 C22        -1.5600    4.0665    7.8208 C.3     1  LIG1        0.0000
     23 C23        -0.8750    5.3334    8.3067 C.3     1  LIG1        0.0000
     24 N24        -1.8508    2.8636    5.6647 N.ar    1  LIG1        0.0000
     25 C25        -1.6687    2.7119    4.3476 C.ar    1  LIG1        0.0000
     26 C26        -2.2876    1.5238    3.6239 C.3     1  LIG1        0.0000
     27 N27         0.0607    0.0692    0.0083 N.2     1  LIG1        0.0000
     28 C28         1.0487   -2.7013   -0.0625 C.ar    1  LIG1        0.0000
     29 C29         1.5619   -3.9940   -0.0978 C.ar    1  LIG1        0.0000
     30 H          -1.9045    0.5203    1.8289 H       1  LIG1        0.0000
     31 H          -0.4374    4.2370    1.6643 H       1  LIG1        0.0000
     32 H           2.5074   -8.5512   -0.1942 H       1  LIG1        0.0000
     33 H           3.7340   -7.8790   -1.0369 H       1  LIG1        0.0000
     34 H           3.7818   -7.9036    0.5952 H       1  LIG1        0.0000
     35 H           1.8812   -6.3852   -0.9602 H       1  LIG1        0.0000
     36 H           1.9289   -6.4098    0.6719 H       1  LIG1        0.0000
     37 H           4.8000   -3.2365   -0.1810 H       1  LIG1        0.0000
     38 H           3.9042   -1.0137   -0.1229 H       1  LIG1        0.0000
     39 H          -1.0413    3.1099   -0.3960 H       1  LIG1        0.0000
     40 H          -1.9699    1.7667   -0.3838 H       1  LIG1        0.0000
     41 H           0.3368    0.4259    2.0479 H       1  LIG1        0.0000
     42 H           0.0536    0.8542    3.5980 H       1  LIG1        0.0000
     43 H           1.0962    2.7895    3.1588 H       1  LIG1        0.0000
     44 H           1.1237    2.4670    1.5582 H       1  LIG1        0.0000
     45 H           0.1500    5.4232    3.8536 H       1  LIG1        0.0000
     46 H          -1.1758    3.2759    8.2977 H       1  LIG1        0.0000
     47 H          -2.5405    4.1247    8.0082 H       1  LIG1        0.0000
     48 H          -1.0208    5.4346    9.2909 H       1  LIG1        0.0000
     49 H           0.1055    5.2751    8.1193 H       1  LIG1        0.0000
     50 H          -1.2592    6.1239    7.8298 H       1  LIG1        0.0000
     51 H          -3.2521    1.7089    3.4353 H       1  LIG1        0.0000
     52 H          -2.2104    0.7049    4.1926 H       1  LIG1        0.0000
     53 H           0.0598   -2.5564   -0.0302 H       1  LIG1        0.0000
     54 H           0.9474   -4.7828   -0.0922 H       1  LIG1        0.0000
@<TRIPOS>BOND
     1     1     2    1
     2     2     3    1
     3     3     4    1
     4     4     5   ar
     5     5     6   ar
     6     6     7   ar
     7     7     8    1
     8     8     9    2
     9     9    10    1
    10    10    11    1
    11    11    12    1
    12    12    13    1
    13    13    14    1
    14    14    15    1
    15    15    16    1
    16    16    17    1
    17    17    13    1
    18    17    18    1
    19    18    19   ar
    20    19    20   ar
    21    20    21   ar
    22    21    22    1
    23    22    23    1
    24    21    24   ar
    25    24    25   ar
    26    25    18   ar
    27    25    26    1
    28    26    14    1
    29    11    27    2
    30    27     8    1
    31     7    28   ar
    32    28    29   ar
    33    29     4   ar
    34    14    30    1
    35    17    31    1
    36     1    32    1
    37     1    33    1
    38     1    34    1
    39     2    35    1
    40     2    36    1
    41     5    37    1
    42     6    38    1
    43    12    39    1
    44    12    40    1
    45    15    41    1
    46    15    42    1
    47    16    43    1
    48    16    44    1
    49    19    45    1
    50    22    46    1
    51    22    47    1
    52    23    48    1
    53    23    49    1
    54    23    50    1
    55    26    51    1
    56    26    52    1
    57    28    53    1
    58    29    54    1
