@<TRIPOS>MOLECULE
*****
 54 58 0 0 0
SMALL
USER_CHARGES

@<TRIPOS>ATOM
      1 C1          1.9921   -6.6970    1.2609 C.3     1  LIG1        0.0000
      2 C2          2.4773   -6.4723   -0.1620 C.3     1  LIG1        0.0000
      3 O3          3.4405   -5.4290   -0.1745 O.3     1  LIG1        0.0000
      4 C4          2.9400   -4.1755   -0.1410 C.ar    1  LIG1        0.0000
      5 C5          3.8111   -3.0912   -0.1502 C.ar    1  LIG1        0.0000
      6 C6          3.2895   -1.8024   -0.1160 C.ar    1  LIG1        0.0000
      7 C7          1.9117   -1.6108   -0.0720 C.ar    1  LIG1        0.0000
      8 C8          1.3773   -0.2627   -0.0370 C.2     1  LIG1        0.0000
      9 N9          2.0781    0.8449   -0.0424 N.2     1  LIG1        0.0000
     10 O10         1.2672    1.8158   -0.0083 O.2     1  LIG1        0.0000
     11 C11         0.0319    1.3792    0.0236 C.2     1  LIG1        0.0000
     12 C12        -1.2175    2.2433    0.0709 C.3     1  LIG1        0.0000
     13 N13        -1.6634    2.5390   -1.3043 N.3     1  LIG1        0.0000
     14 C14        -2.3085    1.3930   -1.9562 C.3     1  LIG1        0.0000
     15 C15        -3.6823    1.3466   -1.3193 C.3     1  LIG1        0.0000
     16 C16        -3.9502    2.7840   -0.9166 C.3     1  LIG1        0.0000
     17 C17        -2.7170    3.5512   -1.3559 C.3     1  LIG1        0.0000
     18 C18        -2.8679    3.9631   -2.8108 C.ar    1  LIG1        0.0000
     19 C19        -3.0422    5.3061   -3.1132 C.ar    1  LIG1        0.0000
     20 N20        -3.2070    5.6194   -4.4048 N.ar    1  LIG1        0.0000
     21 C21        -3.2102    4.6826   -5.3648 C.ar    1  LIG1        0.0000
     22 C22        -3.4394    5.0795   -6.8119 C.3     1  LIG1        0.0000
     23 C23        -3.4025    3.8390   -7.6895 C.3     1  LIG1        0.0000
     24 N24        -3.0219    3.3827   -5.0943 N.ar    1  LIG1        0.0000
     25 C25        -2.8336    3.0088   -3.8228 C.ar    1  LIG1        0.0000
     26 C26        -2.5701    1.5584   -3.4400 C.3     1  LIG1        0.0000
     27 N27         0.0607    0.0692    0.0083 N.2     1  LIG1        0.0000
     28 C28         1.0487   -2.7013   -0.0625 C.ar    1  LIG1        0.0000
     29 C29         1.5619   -3.9940   -0.0978 C.ar    1  LIG1        0.0000
     30 H          -1.8032    0.5493   -1.7754 H       1  LIG1        0.0000
     31 H          -2.5233    4.3303   -0.7597 H       1  LIG1        0.0000
     32 H           1.3138   -7.4317    1.2696 H       1  LIG1        0.0000
     33 H           2.7662   -6.9511    1.8407 H       1  LIG1        0.0000
     34 H           1.5772   -5.8561    1.6083 H       1  LIG1        0.0000
     35 H           2.8922   -7.3132   -0.5095 H       1  LIG1        0.0000
     36 H           1.7032   -6.2183   -0.7419 H       1  LIG1        0.0000
     37 H           4.8000   -3.2365   -0.1810 H       1  LIG1        0.0000
     38 H           3.9042   -1.0137   -0.1229 H       1  LIG1        0.0000
     39 H          -1.9417    1.7558    0.5586 H       1  LIG1        0.0000
     40 H          -1.0131    3.0990    0.5463 H       1  LIG1        0.0000
     41 H          -3.6826    0.7474   -0.5187 H       1  LIG1        0.0000
     42 H          -4.3671    1.0277   -1.9746 H       1  LIG1        0.0000
     43 H          -4.7648    3.1329   -1.3801 H       1  LIG1        0.0000
     44 H          -4.0740    2.8545    0.0732 H       1  LIG1        0.0000
     45 H          -3.0446    6.0071   -2.4001 H       1  LIG1        0.0000
     46 H          -2.7224    5.7138   -7.1011 H       1  LIG1        0.0000
     47 H          -4.3315    5.5228   -6.8987 H       1  LIG1        0.0000
     48 H          -3.5535    4.1005   -8.6428 H       1  LIG1        0.0000
     49 H          -2.5104    3.3957   -7.6027 H       1  LIG1        0.0000
     50 H          -4.1195    3.2047   -7.4003 H       1  LIG1        0.0000
     51 H          -1.7713    1.2325   -3.9456 H       1  LIG1        0.0000
     52 H          -3.3686    1.0101   -3.6888 H       1  LIG1        0.0000
     53 H           0.0598   -2.5564   -0.0302 H       1  LIG1        0.0000
     54 H           0.9474   -4.7828   -0.0922 H       1  LIG1        0.0000
@<TRIPOS>BOND
     1     1     2    1
     2     2     3    1
     3     3     4    1
     4     4     5   ar
     5     5     6   ar
     6     6     7   ar
     7     7     8    1
     8     8     9    2
     9     9    10    1
    10    10    11    1
    11    11    12    1
    12    12    13    1
    13    13    14    1
    14    14    15    1
    15    15    16    1
    16    16    17    1
    17    17    13    1
    18    17    18    1
    19    18    19   ar
    20    19    20   ar
    21    20    21   ar
    22    21    22    1
    23    22    23    1
    24    21    24   ar
    25    24    25   ar
    26    25    18   ar
    27    25    26    1
    28    26    14    1
    29    11    27    2
    30    27     8    1
    31     7    28   ar
    32    28    29   ar
    33    29     4   ar
    34    14    30    1
    35    17    31    1
    36     1    32    1
    37     1    33    1
    38     1    34    1
    39     2    35    1
    40     2    36    1
    41     5    37    1
    42     6    38    1
    43    12    39    1
    44    12    40    1
    45    15    41    1
    46    15    42    1
    47    16    43    1
    48    16    44    1
    49    19    45    1
    50    22    46    1
    51    22    47    1
    52    23    48    1
    53    23    49    1
    54    23    50    1
    55    26    51    1
    56    26    52    1
    57    28    53    1
    58    29    54    1
