@<TRIPOS>MOLECULE
*****
 54 58 0 0 0
SMALL
USER_CHARGES

@<TRIPOS>ATOM
      1 C1          5.3372   -5.2842   -1.6399 C.3     1  LIG1        0.0000
      2 C2          4.8569   -5.5209   -0.2174 C.3     1  LIG1        0.0000
      3 O3          3.4405   -5.4290   -0.1745 O.3     1  LIG1        0.0000
      4 C4          2.9400   -4.1755   -0.1410 C.ar    1  LIG1        0.0000
      5 C5          3.8111   -3.0912   -0.1502 C.ar    1  LIG1        0.0000
      6 C6          3.2895   -1.8024   -0.1160 C.ar    1  LIG1        0.0000
      7 C7          1.9117   -1.6108   -0.0720 C.ar    1  LIG1        0.0000
      8 C8          1.3773   -0.2627   -0.0370 C.2     1  LIG1        0.0000
      9 N9          2.0781    0.8449   -0.0424 N.2     1  LIG1        0.0000
     10 O10         1.2672    1.8158   -0.0083 O.2     1  LIG1        0.0000
     11 C11         0.0319    1.3792    0.0236 C.2     1  LIG1        0.0000
     12 C12        -1.2175    2.2433    0.0709 C.3     1  LIG1        0.0000
     13 N13        -1.6634    2.5390   -1.3043 N.3     1  LIG1        0.0000
     14 C14        -2.9350    3.2708   -1.3494 C.3     1  LIG1        0.0000
     15 C15        -2.5468    4.6851   -0.9697 C.3     1  LIG1        0.0000
     16 C16        -1.0993    4.7998   -1.4076 C.3     1  LIG1        0.0000
     17 C17        -0.7636    3.4488   -2.0113 C.3     1  LIG1        0.0000
     18 C18        -1.1728    3.4318   -3.4747 C.ar    1  LIG1        0.0000
     19 C19        -0.1837    3.4105   -4.4477 C.ar    1  LIG1        0.0000
     20 N20        -0.5892    3.4325   -5.7238 N.ar    1  LIG1        0.0000
     21 C21        -1.8890    3.4789   -6.0520 C.ar    1  LIG1        0.0000
     22 C22        -2.3016    3.5418   -7.5115 C.3     1  LIG1        0.0000
     23 C23        -1.0609    3.5321   -8.3895 C.3     1  LIG1        0.0000
     24 N24        -2.8594    3.4784   -5.1264 N.ar    1  LIG1        0.0000
     25 C25        -2.5173    3.4392   -3.8328 C.ar    1  LIG1        0.0000
     26 C26        -3.5608    3.3922   -2.7245 C.3     1  LIG1        0.0000
     27 N27         0.0607    0.0692    0.0083 N.2     1  LIG1        0.0000
     28 C28         1.0487   -2.7013   -0.0625 C.ar    1  LIG1        0.0000
     29 C29         1.5619   -3.9940   -0.0978 C.ar    1  LIG1        0.0000
     30 H          -3.5875    2.8921   -0.6931 H       1  LIG1        0.0000
     31 H           0.1980    3.2054   -1.8840 H       1  LIG1        0.0000
     32 H           6.3346   -5.3489   -1.6701 H       1  LIG1        0.0000
     33 H           4.9399   -5.9741   -2.2450 H       1  LIG1        0.0000
     34 H           5.0529   -4.3738   -1.9405 H       1  LIG1        0.0000
     35 H           5.1411   -6.4313    0.0833 H       1  LIG1        0.0000
     36 H           5.2541   -4.8310    0.3878 H       1  LIG1        0.0000
     37 H           4.8000   -3.2365   -0.1810 H       1  LIG1        0.0000
     38 H           3.9042   -1.0137   -0.1229 H       1  LIG1        0.0000
     39 H          -1.9417    1.7558    0.5586 H       1  LIG1        0.0000
     40 H          -1.0131    3.0990    0.5463 H       1  LIG1        0.0000
     41 H          -2.6314    4.8240    0.0170 H       1  LIG1        0.0000
     42 H          -3.1171    5.3512   -1.4503 H       1  LIG1        0.0000
     43 H          -0.9944    5.5248   -2.0883 H       1  LIG1        0.0000
     44 H          -0.5089    4.9909   -0.6235 H       1  LIG1        0.0000
     45 H           0.7865    3.3800   -4.2072 H       1  LIG1        0.0000
     46 H          -2.8195    4.3814   -7.6755 H       1  LIG1        0.0000
     47 H          -2.8716    2.7502   -7.7311 H       1  LIG1        0.0000
     48 H          -1.3327    3.5736   -9.3510 H       1  LIG1        0.0000
     49 H          -0.4908    4.3238   -8.1698 H       1  LIG1        0.0000
     50 H          -0.5429    2.6926   -8.2254 H       1  LIG1        0.0000
     51 H          -4.1568    2.6039   -2.8772 H       1  LIG1        0.0000
     52 H          -4.1033    4.2316   -2.7578 H       1  LIG1        0.0000
     53 H           0.0598   -2.5564   -0.0302 H       1  LIG1        0.0000
     54 H           0.9474   -4.7828   -0.0922 H       1  LIG1        0.0000
@<TRIPOS>BOND
     1     1     2    1
     2     2     3    1
     3     3     4    1
     4     4     5   ar
     5     5     6   ar
     6     6     7   ar
     7     7     8    1
     8     8     9    2
     9     9    10    1
    10    10    11    1
    11    11    12    1
    12    12    13    1
    13    13    14    1
    14    14    15    1
    15    15    16    1
    16    16    17    1
    17    17    13    1
    18    17    18    1
    19    18    19   ar
    20    19    20   ar
    21    20    21   ar
    22    21    22    1
    23    22    23    1
    24    21    24   ar
    25    24    25   ar
    26    25    18   ar
    27    25    26    1
    28    26    14    1
    29    11    27    2
    30    27     8    1
    31     7    28   ar
    32    28    29   ar
    33    29     4   ar
    34    14    30    1
    35    17    31    1
    36     1    32    1
    37     1    33    1
    38     1    34    1
    39     2    35    1
    40     2    36    1
    41     5    37    1
    42     6    38    1
    43    12    39    1
    44    12    40    1
    45    15    41    1
    46    15    42    1
    47    16    43    1
    48    16    44    1
    49    19    45    1
    50    22    46    1
    51    22    47    1
    52    23    48    1
    53    23    49    1
    54    23    50    1
    55    26    51    1
    56    26    52    1
    57    28    53    1
    58    29    54    1
