@<TRIPOS>MOLECULE

  54   57
SMALL
USER_CHARGES
@<TRIPOS>ATOM
   1 C1           1.1957    -2.2077    -0.0179 C.3          1    LIG   0.0000
   2 C2           1.2099    -0.6875    -0.0108 C.ar         1    LIG   0.0000
   3 C3          -0.0078    -0.0152     0.0037 C.ar         1    LIG   0.0000
   4 C4          -0.0177     1.3761     0.0103 C.ar         1    LIG   0.0000
   5 S5          -1.5352     2.2275     0.0286 S.o2         1    LIG   0.0000
   6 N6          -2.0235     2.5005    -1.5024 N.3          1    LIG   0.0000
   7 O7          -2.5227     1.4337     0.7131 O.2          1    LIG   0.0000
   8 O8          -1.3721     3.4845     0.7118 O.2          1    LIG   0.0000
   9 C9           1.1712     2.0983     0.0024 C.ar         1    LIG   0.0000
  10 C10          2.3844     1.4177    -0.0127 C.ar         1    LIG   0.0000
  11 C11          3.6100     2.1935    -0.0210 C.2          1    LIG   0.0000
  12 O12          4.1070     2.5189    -1.0636 O.2          1    LIG   0.0000
  13 N13          4.2128     2.5623     1.1868 N.am         1    LIG   0.0000
  14 C14          3.5620     2.1384     2.4351 C.3          1    LIG   0.0000
  15 C15          3.9620     3.1297     3.5140 C.ar         1    LIG   0.0000
  16 C16          3.0148     3.5085     4.4574 C.ar         1    LIG   0.0000
  17 C17          3.3863     4.4237     5.4365 C.ar         1    LIG   0.0000
  18 Cl18         2.1680     4.9524     6.6208 Cl           1    LIG   0.0000
  19 C19          4.6796     4.9304     5.4969 C.ar         1    LIG   0.0000
  20 C20          5.6275     4.5449     4.5567 C.ar         1    LIG   0.0000
  21 C21          5.2406     3.6622     3.5545 C.ar         1    LIG   0.0000
  22 C22          6.2278     3.2711     2.4705 C.3          1    LIG   0.0000
  23 C23          5.4573     3.3502     1.1646 C.3          1    LIG   0.0000
  24 C24          6.3380     2.9387    -0.0043 C.ar         1    LIG   0.0000
  25 C25          7.0240     3.9110    -0.7247 C.ar         1    LIG   0.0000
  26 C26          7.8269     3.5257    -1.7932 C.ar         1    LIG   0.0000
  27 C27          7.9377     2.1804    -2.1312 C.ar         1    LIG   0.0000
  28 C28          7.2483     1.2148    -1.4050 C.ar         1    LIG   0.0000
  29 C29          6.4425     1.5917    -0.3353 C.ar         1    LIG   0.0000
  30 C30          2.4051     0.0260    -0.0190 C.ar         1    LIG   0.0000
  31 C31          3.7332    -0.7151    -0.0350 C.3          1    LIG   0.0000
  32 H            5.2030     4.3072     1.0250 H            1    LIG   0.0000
  33 H            0.2498    -2.5322    -0.0102 H            1    LIG   0.0000
  34 H            1.6560    -2.5415    -0.8405 H            1    LIG   0.0000
  35 H            1.6718    -2.5492     0.7924 H            1    LIG   0.0000
  36 H           -0.8672    -0.5265     0.0094 H            1    LIG   0.0000
  37 H           -1.3378     3.0517    -1.9777 H            1    LIG   0.0000
  38 H           -2.1368     1.6276    -1.9768 H            1    LIG   0.0000
  39 H            1.1540     3.0981     0.0076 H            1    LIG   0.0000
  40 H            3.8671     1.2194     2.6849 H            1    LIG   0.0000
  41 H            2.5685     2.1400     2.3205 H            1    LIG   0.0000
  42 H            2.0887     3.1322     4.4330 H            1    LIG   0.0000
  43 H            4.9287     5.5748     6.2199 H            1    LIG   0.0000
  44 H            6.5638     4.8935     4.5998 H            1    LIG   0.0000
  45 H            6.5618     2.3409     2.6223 H            1    LIG   0.0000
  46 H            7.0010     3.9051     2.4580 H            1    LIG   0.0000
  47 H            6.9408     4.8763    -0.4772 H            1    LIG   0.0000
  48 H            8.3247     4.2157    -2.3186 H            1    LIG   0.0000
  49 H            8.5158     1.9064    -2.8998 H            1    LIG   0.0000
  50 H            7.3319     0.2494    -1.6520 H            1    LIG   0.0000
  51 H            5.9440     0.9019     0.1898 H            1    LIG   0.0000
  52 H            3.5648    -1.7008    -0.0378 H            1    LIG   0.0000
  53 H            4.2462    -0.4623    -0.8554 H            1    LIG   0.0000
  54 H            4.2618    -0.4695     0.7775 H            1    LIG   0.0000
@<TRIPOS>BOND
   1        1        2 1
   2        2        3 ar
   3        3        4 ar
   4        4        5 1
   5        5        6 1
   6        5        7 2
   7        5        8 2
   8        4        9 ar
   9        9       10 ar
  10       10       11 1
  11       11       12 2
  12       11       13 am
  13       13       14 1
  14       14       15 1
  15       15       16 ar
  16       16       17 ar
  17       17       18 1
  18       17       19 ar
  19       19       20 ar
  20       20       21 ar
  21       21       15 ar
  22       21       22 1
  23       22       23 1
  24       23       13 1
  25       23       24 1
  26       24       25 ar
  27       25       26 ar
  28       26       27 ar
  29       27       28 ar
  30       28       29 ar
  31       29       24 ar
  32       10       30 ar
  33       30        2 ar
  34       30       31 1
  35       23       32 1
  36        1       33 1
  37        1       34 1
  38        1       35 1
  39        3       36 1
  40        6       37 1
  41        6       38 1
  42        9       39 1
  43       14       40 1
  44       14       41 1
  45       16       42 1
  46       19       43 1
  47       20       44 1
  48       22       45 1
  49       22       46 1
  50       25       47 1
  51       26       48 1
  52       27       49 1
  53       28       50 1
  54       29       51 1
  55       31       52 1
  56       31       53 1
  57       31       54 1

@<TRIPOS>MOLECULE

  54   57
SMALL
USER_CHARGES
@<TRIPOS>ATOM
   1 C1           1.1957    -2.2077    -0.0179 C.3          1    LIG   0.0000
   2 C2           1.2099    -0.6875    -0.0108 C.ar         1    LIG   0.0000
   3 C3          -0.0078    -0.0152     0.0037 C.ar         1    LIG   0.0000
   4 C4          -0.0177     1.3761     0.0103 C.ar         1    LIG   0.0000
   5 S5          -1.5352     2.2275     0.0286 S.o2         1    LIG   0.0000
   6 N6          -2.0235     2.5005    -1.5024 N.3          1    LIG   0.0000
   7 O7          -2.5227     1.4337     0.7131 O.2          1    LIG   0.0000
   8 O8          -1.3721     3.4845     0.7118 O.2          1    LIG   0.0000
   9 C9           1.1712     2.0983     0.0024 C.ar         1    LIG   0.0000
  10 C10          2.3844     1.4177    -0.0127 C.ar         1    LIG   0.0000
  11 C11          3.6100     2.1935    -0.0210 C.2          1    LIG   0.0000
  12 O12          4.1070     2.5189    -1.0636 O.2          1    LIG   0.0000
  13 N13          4.2128     2.5623     1.1868 N.am         1    LIG   0.0000
  14 C14          3.5665     2.1423     2.4413 C.3          1    LIG   0.0000
  15 C15          4.5904     2.1291     3.5671 C.ar         1    LIG   0.0000
  16 C16          4.5018     1.1690     4.5684 C.ar         1    LIG   0.0000
  17 C17          5.4437     1.1668     5.5924 C.ar         1    LIG   0.0000
  18 Cl18         5.3704    -0.0742     6.8669 Cl           1    LIG   0.0000
  19 C19          6.4537     2.1240     5.6307 C.ar         1    LIG   0.0000
  20 C20          6.5362     3.0877     4.6295 C.ar         1    LIG   0.0000
  21 C21          5.6140     3.0687     3.5894 C.ar         1    LIG   0.0000
  22 C22          5.7218     4.0753     2.4561 C.3          1    LIG   0.0000
  23 C23          5.4588     3.3514     1.1411 C.3          1    LIG   0.0000
  24 C24          6.6659     2.5092     0.7606 C.ar         1    LIG   0.0000
  25 C25          7.6276     3.0328    -0.0972 C.ar         1    LIG   0.0000
  26 C26          8.7284     2.2551    -0.4405 C.ar         1    LIG   0.0000
  27 C27          8.8593     0.9683     0.0728 C.ar         1    LIG   0.0000
  28 C28          7.8928     0.4528     0.9303 C.ar         1    LIG   0.0000
  29 C29          6.7882     1.2238     1.2783 C.ar         1    LIG   0.0000
  30 C30          2.4051     0.0260    -0.0190 C.ar         1    LIG   0.0000
  31 C31          3.7332    -0.7151    -0.0350 C.3          1    LIG   0.0000
  32 H            5.3455     4.0487     0.4333 H            1    LIG   0.0000
  33 H            0.2498    -2.5322    -0.0102 H            1    LIG   0.0000
  34 H            1.6560    -2.5415    -0.8405 H            1    LIG   0.0000
  35 H            1.6718    -2.5492     0.7924 H            1    LIG   0.0000
  36 H           -0.8672    -0.5265     0.0094 H            1    LIG   0.0000
  37 H           -1.3378     3.0517    -1.9777 H            1    LIG   0.0000
  38 H           -2.1368     1.6276    -1.9768 H            1    LIG   0.0000
  39 H            1.1540     3.0981     0.0076 H            1    LIG   0.0000
  40 H            3.1855     1.2247     2.3279 H            1    LIG   0.0000
  41 H            2.8323     2.7824     2.6674 H            1    LIG   0.0000
  42 H            3.7697     0.4879     4.5530 H            1    LIG   0.0000
  43 H            7.1195     2.1194     6.3768 H            1    LIG   0.0000
  44 H            7.2512     3.7862     4.6581 H            1    LIG   0.0000
  45 H            6.6390     4.4735     2.4446 H            1    LIG   0.0000
  46 H            5.0451     4.8005     2.5833 H            1    LIG   0.0000
  47 H            7.5286     3.9583    -0.4629 H            1    LIG   0.0000
  48 H            9.4261     2.6208    -1.0566 H            1    LIG   0.0000
  49 H            9.6519     0.4116    -0.1758 H            1    LIG   0.0000
  50 H            7.9920    -0.4724     1.2967 H            1    LIG   0.0000
  51 H            6.0900     0.8581     1.8937 H            1    LIG   0.0000
  52 H            3.5648    -1.7008    -0.0378 H            1    LIG   0.0000
  53 H            4.2462    -0.4623    -0.8554 H            1    LIG   0.0000
  54 H            4.2618    -0.4695     0.7775 H            1    LIG   0.0000
@<TRIPOS>BOND
   1        1        2 1
   2        2        3 ar
   3        3        4 ar
   4        4        5 1
   5        5        6 1
   6        5        7 2
   7        5        8 2
   8        4        9 ar
   9        9       10 ar
  10       10       11 1
  11       11       12 2
  12       11       13 am
  13       13       14 1
  14       14       15 1
  15       15       16 ar
  16       16       17 ar
  17       17       18 1
  18       17       19 ar
  19       19       20 ar
  20       20       21 ar
  21       21       15 ar
  22       21       22 1
  23       22       23 1
  24       23       13 1
  25       23       24 1
  26       24       25 ar
  27       25       26 ar
  28       26       27 ar
  29       27       28 ar
  30       28       29 ar
  31       29       24 ar
  32       10       30 ar
  33       30        2 ar
  34       30       31 1
  35       23       32 1
  36        1       33 1
  37        1       34 1
  38        1       35 1
  39        3       36 1
  40        6       37 1
  41        6       38 1
  42        9       39 1
  43       14       40 1
  44       14       41 1
  45       16       42 1
  46       19       43 1
  47       20       44 1
  48       22       45 1
  49       22       46 1
  50       25       47 1
  51       26       48 1
  52       27       49 1
  53       28       50 1
  54       29       51 1
  55       31       52 1
  56       31       53 1
  57       31       54 1

@<TRIPOS>MOLECULE

  54   57
SMALL
USER_CHARGES
@<TRIPOS>ATOM
   1 C1           1.1957    -2.2077    -0.0179 C.3          1    LIG   0.0000
   2 C2           1.2099    -0.6875    -0.0108 C.ar         1    LIG   0.0000
   3 C3          -0.0078    -0.0152     0.0037 C.ar         1    LIG   0.0000
   4 C4          -0.0177     1.3761     0.0103 C.ar         1    LIG   0.0000
   5 S5          -1.5352     2.2275     0.0286 S.o2         1    LIG   0.0000
   6 N6          -2.0235     2.5005    -1.5024 N.3          1    LIG   0.0000
   7 O7          -2.5227     1.4337     0.7131 O.2          1    LIG   0.0000
   8 O8          -1.3721     3.4845     0.7118 O.2          1    LIG   0.0000
   9 C9           1.1712     2.0983     0.0024 C.ar         1    LIG   0.0000
  10 C10          2.3844     1.4177    -0.0127 C.ar         1    LIG   0.0000
  11 C11          3.6100     2.1935    -0.0210 C.2          1    LIG   0.0000
  12 O12          4.1070     2.5189    -1.0636 O.2          1    LIG   0.0000
  13 N13          4.2128     2.5623     1.1868 N.am         1    LIG   0.0000
  14 C14          5.4567     3.3481     1.1297 C.3          1    LIG   0.0000
  15 C15          5.6469     4.1042     2.4366 C.ar         1    LIG   0.0000
  16 C16          6.2291     5.3664     2.4244 C.ar         1    LIG   0.0000
  17 C17          6.3977     6.0481     3.6255 C.ar         1    LIG   0.0000
  18 Cl18         7.1097     7.6800     3.6308 Cl           1    LIG   0.0000
  19 C19          6.0083     5.4708     4.8309 C.ar         1    LIG   0.0000
  20 C20          5.4308     4.2042     4.8402 C.ar         1    LIG   0.0000
  21 C21          5.2331     3.5378     3.6362 C.ar         1    LIG   0.0000
  22 C22          4.5512     2.1799     3.6192 C.3          1    LIG   0.0000
  23 C23          3.5744     2.1451     2.4499 C.3          1    LIG   0.0000
  24 C24          2.3411     2.9713     2.7779 C.ar         1    LIG   0.0000
  25 C25          1.2173     2.3484     3.3110 C.ar         1    LIG   0.0000
  26 C26          0.0931     3.1118     3.6074 C.ar         1    LIG   0.0000
  27 C27          0.1003     4.4831     3.3707 C.ar         1    LIG   0.0000
  28 C28          1.2286     5.0977     2.8376 C.ar         1    LIG   0.0000
  29 C29          2.3571     4.3413     2.5376 C.ar         1    LIG   0.0000
  30 C30          2.4051     0.0260    -0.0190 C.ar         1    LIG   0.0000
  31 C31          3.7332    -0.7151    -0.0350 C.3          1    LIG   0.0000
  32 H            3.2777     1.1969     2.3362 H            1    LIG   0.0000
  33 H            0.2498    -2.5322    -0.0102 H            1    LIG   0.0000
  34 H            1.6560    -2.5415    -0.8405 H            1    LIG   0.0000
  35 H            1.6718    -2.5492     0.7924 H            1    LIG   0.0000
  36 H           -0.8672    -0.5265     0.0094 H            1    LIG   0.0000
  37 H           -1.3378     3.0517    -1.9777 H            1    LIG   0.0000
  38 H           -2.1368     1.6276    -1.9768 H            1    LIG   0.0000
  39 H            1.1540     3.0981     0.0076 H            1    LIG   0.0000
  40 H            5.4035     4.0000     0.3733 H            1    LIG   0.0000
  41 H            6.2320     2.7330     0.9858 H            1    LIG   0.0000
  42 H            6.5234     5.7796     1.5626 H            1    LIG   0.0000
  43 H            6.1433     5.9655     5.6894 H            1    LIG   0.0000
  44 H            5.1610     3.7782     5.7037 H            1    LIG   0.0000
  45 H            4.0562     2.0401     4.4768 H            1    LIG   0.0000
  46 H            5.2360     1.4597     3.5084 H            1    LIG   0.0000
  47 H            1.2178     1.3627     3.4793 H            1    LIG   0.0000
  48 H           -0.7207     2.6751     3.9908 H            1    LIG   0.0000
  49 H           -0.7095     5.0293     3.5849 H            1    LIG   0.0000
  50 H            1.2286     6.0835     2.6699 H            1    LIG   0.0000
  51 H            3.1708     4.7777     2.1535 H            1    LIG   0.0000
  52 H            3.5648    -1.7008    -0.0378 H            1    LIG   0.0000
  53 H            4.2462    -0.4623    -0.8554 H            1    LIG   0.0000
  54 H            4.2618    -0.4695     0.7775 H            1    LIG   0.0000
@<TRIPOS>BOND
   1        1        2 1
   2        2        3 ar
   3        3        4 ar
   4        4        5 1
   5        5        6 1
   6        5        7 2
   7        5        8 2
   8        4        9 ar
   9        9       10 ar
  10       10       11 1
  11       11       12 2
  12       11       13 am
  13       13       14 1
  14       14       15 1
  15       15       16 ar
  16       16       17 ar
  17       17       18 1
  18       17       19 ar
  19       19       20 ar
  20       20       21 ar
  21       21       15 ar
  22       21       22 1
  23       22       23 1
  24       23       13 1
  25       23       24 1
  26       24       25 ar
  27       25       26 ar
  28       26       27 ar
  29       27       28 ar
  30       28       29 ar
  31       29       24 ar
  32       10       30 ar
  33       30        2 ar
  34       30       31 1
  35       23       32 1
  36        1       33 1
  37        1       34 1
  38        1       35 1
  39        3       36 1
  40        6       37 1
  41        6       38 1
  42        9       39 1
  43       14       40 1
  44       14       41 1
  45       16       42 1
  46       19       43 1
  47       20       44 1
  48       22       45 1
  49       22       46 1
  50       25       47 1
  51       26       48 1
  52       27       49 1
  53       28       50 1
  54       29       51 1
  55       31       52 1
  56       31       53 1
  57       31       54 1

@<TRIPOS>MOLECULE

  54   57
SMALL
USER_CHARGES
@<TRIPOS>ATOM
   1 C1           1.1957    -2.2077    -0.0179 C.3          1    LIG   0.0000
   2 C2           1.2099    -0.6875    -0.0108 C.ar         1    LIG   0.0000
   3 C3          -0.0078    -0.0152     0.0037 C.ar         1    LIG   0.0000
   4 C4          -0.0177     1.3761     0.0103 C.ar         1    LIG   0.0000
   5 S5          -1.5352     2.2275     0.0286 S.o2         1    LIG   0.0000
   6 N6          -2.0235     2.5005    -1.5024 N.3          1    LIG   0.0000
   7 O7          -2.5227     1.4337     0.7131 O.2          1    LIG   0.0000
   8 O8          -1.3721     3.4845     0.7118 O.2          1    LIG   0.0000
   9 C9           1.1712     2.0983     0.0024 C.ar         1    LIG   0.0000
  10 C10          2.3844     1.4177    -0.0127 C.ar         1    LIG   0.0000
  11 C11          3.6100     2.1935    -0.0210 C.2          1    LIG   0.0000
  12 O12          4.1070     2.5189    -1.0636 O.2          1    LIG   0.0000
  13 N13          4.2158     2.5642     1.1928 N.am         1    LIG   0.0000
  14 C14          3.7204     2.1936     2.5299 C.3          1    LIG   0.0000
  15 C15          4.7937     1.4186     3.2782 C.ar         1    LIG   0.0000
  16 C16          4.4406     0.6317     4.3789 C.ar         1    LIG   0.0000
  17 C17          5.4492    -0.0280     5.0699 C.ar         1    LIG   0.0000
  18 Cl18         5.0227    -1.0251     6.4808 Cl           1    LIG   0.0000
  19 C19          6.7797     0.0801     4.6817 C.ar         1    LIG   0.0000
  20 C20          7.1137     0.8514     3.5726 C.ar         1    LIG   0.0000
  21 C21          6.1192     1.5112     2.8625 C.ar         1    LIG   0.0000
  22 C22          6.5208     2.3078     1.6347 C.3          1    LIG   0.0000
  23 C23          5.4537     3.3463     1.3259 C.3          1    LIG   0.0000
  24 C24          5.7478     4.0975     0.0373 C.ar         1    LIG   0.0000
  25 C25          7.0571     4.1865    -0.4239 C.ar         1    LIG   0.0000
  26 C26          7.3172     4.8763    -1.6033 C.ar         1    LIG   0.0000
  27 C27          6.2737     5.4678    -2.3087 C.ar         1    LIG   0.0000
  28 C28          4.9673     5.3736    -1.8402 C.ar         1    LIG   0.0000
  29 C29          4.6985     4.6860    -0.6609 C.ar         1    LIG   0.0000
  30 C30          2.4051     0.0260    -0.0190 C.ar         1    LIG   0.0000
  31 C31          3.7332    -0.7151    -0.0350 C.3          1    LIG   0.0000
  32 H            5.3720     3.9901     2.0867 H            1    LIG   0.0000
  33 H            0.2498    -2.5322    -0.0102 H            1    LIG   0.0000
  34 H            1.6560    -2.5415    -0.8405 H            1    LIG   0.0000
  35 H            1.6718    -2.5492     0.7924 H            1    LIG   0.0000
  36 H           -0.8672    -0.5265     0.0094 H            1    LIG   0.0000
  37 H           -1.3378     3.0517    -1.9777 H            1    LIG   0.0000
  38 H           -2.1368     1.6276    -1.9768 H            1    LIG   0.0000
  39 H            1.1540     3.0981     0.0076 H            1    LIG   0.0000
  40 H            2.9040     1.6239     2.4357 H            1    LIG   0.0000
  41 H            3.4916     3.0222     3.0410 H            1    LIG   0.0000
  42 H            3.4853     0.5460     4.6618 H            1    LIG   0.0000
  43 H            7.4934    -0.3943     5.1970 H            1    LIG   0.0000
  44 H            8.0689     0.9305     3.2873 H            1    LIG   0.0000
  45 H            6.6186     1.6896     0.8548 H            1    LIG   0.0000
  46 H            7.3920     2.7675     1.8071 H            1    LIG   0.0000
  47 H            7.8031     3.7592     0.0869 H            1    LIG   0.0000
  48 H            8.2545     4.9471    -1.9446 H            1    LIG   0.0000
  49 H            6.4638     5.9631    -3.1564 H            1    LIG   0.0000
  50 H            4.2210     5.8002    -2.3512 H            1    LIG   0.0000
  51 H            3.7613     4.6156    -0.3191 H            1    LIG   0.0000
  52 H            3.5648    -1.7008    -0.0378 H            1    LIG   0.0000
  53 H            4.2462    -0.4623    -0.8554 H            1    LIG   0.0000
  54 H            4.2618    -0.4695     0.7775 H            1    LIG   0.0000
@<TRIPOS>BOND
   1        1        2 1
   2        2        3 ar
   3        3        4 ar
   4        4        5 1
   5        5        6 1
   6        5        7 2
   7        5        8 2
   8        4        9 ar
   9        9       10 ar
  10       10       11 1
  11       11       12 2
  12       11       13 am
  13       13       14 1
  14       14       15 1
  15       15       16 ar
  16       16       17 ar
  17       17       18 1
  18       17       19 ar
  19       19       20 ar
  20       20       21 ar
  21       21       15 ar
  22       21       22 1
  23       22       23 1
  24       23       13 1
  25       23       24 1
  26       24       25 ar
  27       25       26 ar
  28       26       27 ar
  29       27       28 ar
  30       28       29 ar
  31       29       24 ar
  32       10       30 ar
  33       30        2 ar
  34       30       31 1
  35       23       32 1
  36        1       33 1
  37        1       34 1
  38        1       35 1
  39        3       36 1
  40        6       37 1
  41        6       38 1
  42        9       39 1
  43       14       40 1
  44       14       41 1
  45       16       42 1
  46       19       43 1
  47       20       44 1
  48       22       45 1
  49       22       46 1
  50       25       47 1
  51       26       48 1
  52       27       49 1
  53       28       50 1
  54       29       51 1
  55       31       52 1
  56       31       53 1
  57       31       54 1

@<TRIPOS>MOLECULE

  54   57
SMALL
USER_CHARGES
@<TRIPOS>ATOM
   1 C1           1.1957    -2.2077    -0.0179 C.3          1    LIG   0.0000
   2 C2           1.2099    -0.6875    -0.0108 C.ar         1    LIG   0.0000
   3 C3          -0.0078    -0.0152     0.0037 C.ar         1    LIG   0.0000
   4 C4          -0.0177     1.3761     0.0103 C.ar         1    LIG   0.0000
   5 S5          -1.5352     2.2275     0.0286 S.o2         1    LIG   0.0000
   6 N6          -2.0235     2.5005    -1.5024 N.3          1    LIG   0.0000
   7 O7          -2.5227     1.4337     0.7131 O.2          1    LIG   0.0000
   8 O8          -1.3721     3.4845     0.7118 O.2          1    LIG   0.0000
   9 C9           1.1712     2.0983     0.0024 C.ar         1    LIG   0.0000
  10 C10          2.3844     1.4177    -0.0127 C.ar         1    LIG   0.0000
  11 C11          3.6100     2.1935    -0.0210 C.2          1    LIG   0.0000
  12 O12          4.1269     2.5098     1.0147 O.2          1    LIG   0.0000
  13 N13          4.1896     2.5730    -1.2369 N.am         1    LIG   0.0000
  14 C14          3.5159     2.1586    -2.4762 C.3          1    LIG   0.0000
  15 C15          4.5726     2.0893    -3.5649 C.ar         1    LIG   0.0000
  16 C16          4.5006     1.0654    -4.5015 C.ar         1    LIG   0.0000
  17 C17          5.4772     1.0035    -5.4897 C.ar         1    LIG   0.0000
  18 Cl18         5.4223    -0.3311    -6.6654 Cl           1    LIG   0.0000
  19 C19          6.4879     1.9552    -5.5657 C.ar         1    LIG   0.0000
  20 C20          6.5542     2.9826    -4.6324 C.ar         1    LIG   0.0000
  21 C21          5.6005     3.0168    -3.6211 C.ar         1    LIG   0.0000
  22 C22          5.6799     4.0830    -2.5443 C.3          1    LIG   0.0000
  23 C23          5.4344     3.3608    -1.2315 C.3          1    LIG   0.0000
  24 C24          5.4506     4.3399    -0.0687 C.ar         1    LIG   0.0000
  25 C25          6.6298     4.5483     0.6391 C.ar         1    LIG   0.0000
  26 C26          6.6355     5.4454     1.7020 C.ar         1    LIG   0.0000
  27 C27          5.4703     6.1233     2.0472 C.ar         1    LIG   0.0000
  28 C28          4.2955     5.9090     1.3337 C.ar         1    LIG   0.0000
  29 C29          4.2811     5.0129     0.2695 C.ar         1    LIG   0.0000
  30 C30          2.4051     0.0260    -0.0190 C.ar         1    LIG   0.0000
  31 C31          3.7332    -0.7151    -0.0350 C.3          1    LIG   0.0000
  32 H            6.1918     2.7222    -1.0953 H            1    LIG   0.0000
  33 H            0.2498    -2.5322    -0.0102 H            1    LIG   0.0000
  34 H            1.6560    -2.5415    -0.8405 H            1    LIG   0.0000
  35 H            1.6718    -2.5492     0.7924 H            1    LIG   0.0000
  36 H           -0.8672    -0.5265     0.0094 H            1    LIG   0.0000
  37 H           -1.3378     3.0517    -1.9777 H            1    LIG   0.0000
  38 H           -2.1368     1.6276    -1.9768 H            1    LIG   0.0000
  39 H            1.1540     3.0981     0.0076 H            1    LIG   0.0000
  40 H            2.8135     2.8261    -2.7233 H            1    LIG   0.0000
  41 H            3.0935     1.2607    -2.3520 H            1    LIG   0.0000
  42 H            3.7644     0.3895    -4.4658 H            1    LIG   0.0000
  43 H            7.1699     1.9001    -6.2950 H            1    LIG   0.0000
  44 H            7.2694     3.6794    -4.6866 H            1    LIG   0.0000
  45 H            4.9806     4.7820    -2.6937 H            1    LIG   0.0000
  46 H            6.5839     4.5106    -2.5432 H            1    LIG   0.0000
  47 H            7.4643     4.0585     0.3865 H            1    LIG   0.0000
  48 H            7.4772     5.6032     2.2184 H            1    LIG   0.0000
  49 H            5.4774     6.7677     2.8119 H            1    LIG   0.0000
  50 H            3.4612     6.3992     1.5857 H            1    LIG   0.0000
  51 H            3.4393     4.8543    -0.2465 H            1    LIG   0.0000
  52 H            3.5648    -1.7008    -0.0378 H            1    LIG   0.0000
  53 H            4.2462    -0.4623    -0.8554 H            1    LIG   0.0000
  54 H            4.2618    -0.4695     0.7775 H            1    LIG   0.0000
@<TRIPOS>BOND
   1        1        2 1
   2        2        3 ar
   3        3        4 ar
   4        4        5 1
   5        5        6 1
   6        5        7 2
   7        5        8 2
   8        4        9 ar
   9        9       10 ar
  10       10       11 1
  11       11       12 2
  12       11       13 am
  13       13       14 1
  14       14       15 1
  15       15       16 ar
  16       16       17 ar
  17       17       18 1
  18       17       19 ar
  19       19       20 ar
  20       20       21 ar
  21       21       15 ar
  22       21       22 1
  23       22       23 1
  24       23       13 1
  25       23       24 1
  26       24       25 ar
  27       25       26 ar
  28       26       27 ar
  29       27       28 ar
  30       28       29 ar
  31       29       24 ar
  32       10       30 ar
  33       30        2 ar
  34       30       31 1
  35       23       32 1
  36        1       33 1
  37        1       34 1
  38        1       35 1
  39        3       36 1
  40        6       37 1
  41        6       38 1
  42        9       39 1
  43       14       40 1
  44       14       41 1
  45       16       42 1
  46       19       43 1
  47       20       44 1
  48       22       45 1
  49       22       46 1
  50       25       47 1
  51       26       48 1
  52       27       49 1
  53       28       50 1
  54       29       51 1
  55       31       52 1
  56       31       53 1
  57       31       54 1

@<TRIPOS>MOLECULE

  54   57
SMALL
USER_CHARGES
@<TRIPOS>ATOM
   1 C1           1.1957    -2.2077    -0.0179 C.3          1    LIG   0.0000
   2 C2           1.2099    -0.6875    -0.0108 C.ar         1    LIG   0.0000
   3 C3          -0.0078    -0.0152     0.0037 C.ar         1    LIG   0.0000
   4 C4          -0.0177     1.3761     0.0103 C.ar         1    LIG   0.0000
   5 S5          -1.5352     2.2275     0.0286 S.o2         1    LIG   0.0000
   6 N6          -2.0235     2.5005    -1.5024 N.3          1    LIG   0.0000
   7 O7          -2.5227     1.4337     0.7131 O.2          1    LIG   0.0000
   8 O8          -1.3721     3.4845     0.7118 O.2          1    LIG   0.0000
   9 C9           1.1712     2.0983     0.0024 C.ar         1    LIG   0.0000
  10 C10          2.3844     1.4177    -0.0127 C.ar         1    LIG   0.0000
  11 C11          3.6100     2.1935    -0.0210 C.2          1    LIG   0.0000
  12 O12          4.1269     2.5098     1.0147 O.2          1    LIG   0.0000
  13 N13          4.1896     2.5730    -1.2368 N.am         1    LIG   0.0000
  14 C14          3.5213     2.1609    -2.4825 C.3          1    LIG   0.0000
  15 C15          3.9366     3.0851    -3.6180 C.ar         1    LIG   0.0000
  16 C16          3.0212     3.4097    -4.6125 C.ar         1    LIG   0.0000
  17 C17          3.4124     4.2557    -5.6455 C.ar         1    LIG   0.0000
  18 Cl18         2.2471     4.7127    -6.9117 Cl           1    LIG   0.0000
  19 C19          4.7093     4.7587    -5.6994 C.ar         1    LIG   0.0000
  20 C20          5.6252     4.4270    -4.7050 C.ar         1    LIG   0.0000
  21 C21          5.2235     3.6080    -3.6560 C.ar         1    LIG   0.0000
  22 C22          6.1904     3.2816    -2.5300 C.3          1    LIG   0.0000
  23 C23          5.4363     3.3617    -1.2080 C.3          1    LIG   0.0000
  24 C24          5.1953     4.8155    -0.8341 C.ar         1    LIG   0.0000
  25 C25          6.0883     5.4658     0.0111 C.ar         1    LIG   0.0000
  26 C26          5.8598     6.7956     0.3486 C.ar         1    LIG   0.0000
  27 C27          4.7478     7.4614    -0.1582 C.ar         1    LIG   0.0000
  28 C28          3.8600     6.8032    -1.0030 C.ar         1    LIG   0.0000
  29 C29          4.0809     5.4729    -1.3450 C.ar         1    LIG   0.0000
  30 C30          2.4051     0.0260    -0.0190 C.ar         1    LIG   0.0000
  31 C31          3.7332    -0.7151    -0.0350 C.3          1    LIG   0.0000
  32 H            6.0249     2.9653    -0.5034 H            1    LIG   0.0000
  33 H            0.2498    -2.5322    -0.0102 H            1    LIG   0.0000
  34 H            1.6560    -2.5415    -0.8405 H            1    LIG   0.0000
  35 H            1.6718    -2.5492     0.7924 H            1    LIG   0.0000
  36 H           -0.8672    -0.5265     0.0094 H            1    LIG   0.0000
  37 H           -1.3378     3.0517    -1.9777 H            1    LIG   0.0000
  38 H           -2.1368     1.6276    -1.9768 H            1    LIG   0.0000
  39 H            1.1540     3.0981     0.0076 H            1    LIG   0.0000
  40 H            2.5301     2.2100    -2.3597 H            1    LIG   0.0000
  41 H            3.7835     1.2220    -2.7054 H            1    LIG   0.0000
  42 H            2.0926     3.0396    -4.5858 H            1    LIG   0.0000
  43 H            4.9827     5.3579    -6.4519 H            1    LIG   0.0000
  44 H            6.5621     4.7742    -4.7449 H            1    LIG   0.0000
  45 H            6.9428     3.9403    -2.5297 H            1    LIG   0.0000
  46 H            6.5551     2.3589    -2.6551 H            1    LIG   0.0000
  47 H            6.8859     4.9825     0.3721 H            1    LIG   0.0000
  48 H            6.4948     7.2735     0.9556 H            1    LIG   0.0000
  49 H            4.5861     8.4175     0.0862 H            1    LIG   0.0000
  50 H            3.0628     7.2865    -1.3647 H            1    LIG   0.0000
  51 H            3.4457     4.9946    -1.9514 H            1    LIG   0.0000
  52 H            3.5648    -1.7008    -0.0378 H            1    LIG   0.0000
  53 H            4.2462    -0.4623    -0.8554 H            1    LIG   0.0000
  54 H            4.2618    -0.4695     0.7775 H            1    LIG   0.0000
@<TRIPOS>BOND
   1        1        2 1
   2        2        3 ar
   3        3        4 ar
   4        4        5 1
   5        5        6 1
   6        5        7 2
   7        5        8 2
   8        4        9 ar
   9        9       10 ar
  10       10       11 1
  11       11       12 2
  12       11       13 am
  13       13       14 1
  14       14       15 1
  15       15       16 ar
  16       16       17 ar
  17       17       18 1
  18       17       19 ar
  19       19       20 ar
  20       20       21 ar
  21       21       15 ar
  22       21       22 1
  23       22       23 1
  24       23       13 1
  25       23       24 1
  26       24       25 ar
  27       25       26 ar
  28       26       27 ar
  29       27       28 ar
  30       28       29 ar
  31       29       24 ar
  32       10       30 ar
  33       30        2 ar
  34       30       31 1
  35       23       32 1
  36        1       33 1
  37        1       34 1
  38        1       35 1
  39        3       36 1
  40        6       37 1
  41        6       38 1
  42        9       39 1
  43       14       40 1
  44       14       41 1
  45       16       42 1
  46       19       43 1
  47       20       44 1
  48       22       45 1
  49       22       46 1
  50       25       47 1
  51       26       48 1
  52       27       49 1
  53       28       50 1
  54       29       51 1
  55       31       52 1
  56       31       53 1
  57       31       54 1

@<TRIPOS>MOLECULE

  54   57
SMALL
USER_CHARGES
@<TRIPOS>ATOM
   1 C1           1.1957    -2.2077    -0.0179 C.3          1    LIG   0.0000
   2 C2           1.2099    -0.6875    -0.0108 C.ar         1    LIG   0.0000
   3 C3          -0.0078    -0.0152     0.0037 C.ar         1    LIG   0.0000
   4 C4          -0.0177     1.3761     0.0103 C.ar         1    LIG   0.0000
   5 S5          -1.5352     2.2275     0.0286 S.o2         1    LIG   0.0000
   6 N6          -2.0235     2.5005    -1.5024 N.3          1    LIG   0.0000
   7 O7          -2.5227     1.4337     0.7131 O.2          1    LIG   0.0000
   8 O8          -1.3721     3.4845     0.7118 O.2          1    LIG   0.0000
   9 C9           1.1712     2.0983     0.0024 C.ar         1    LIG   0.0000
  10 C10          2.3844     1.4177    -0.0127 C.ar         1    LIG   0.0000
  11 C11          3.6100     2.1935    -0.0210 C.2          1    LIG   0.0000
  12 O12          4.1269     2.5098     1.0147 O.2          1    LIG   0.0000
  13 N13          4.1896     2.5730    -1.2368 N.am         1    LIG   0.0000
  14 C14          5.4326     3.3613    -1.1966 C.3          1    LIG   0.0000
  15 C15          6.1846     3.2016    -2.5099 C.ar         1    LIG   0.0000
  16 C16          7.5747     3.1878    -2.5111 C.ar         1    LIG   0.0000
  17 C17          8.2513     3.0411    -3.7179 C.ar         1    LIG   0.0000
  18 Cl18        10.0308     2.9862    -3.7400 Cl           1    LIG   0.0000
  19 C19          7.5512     2.9289    -4.9159 C.ar         1    LIG   0.0000
  20 C20          6.1593     2.9489    -4.9118 C.ar         1    LIG   0.0000
  21 C21          5.4841     3.0627    -3.7019 C.ar         1    LIG   0.0000
  22 C22          3.9652     3.0276    -3.6700 C.3          1    LIG   0.0000
  23 C23          3.5271     2.1668    -2.4912 C.3          1    LIG   0.0000
  24 C24          3.7430     0.6966    -2.8123 C.ar         1    LIG   0.0000
  25 C25          5.0293     0.1679    -2.7849 C.ar         1    LIG   0.0000
  26 C26          5.2178    -1.1781    -3.0807 C.ar         1    LIG   0.0000
  27 C27          4.1263    -1.9804    -3.3992 C.ar         1    LIG   0.0000
  28 C28          2.8434    -1.4433    -3.4239 C.ar         1    LIG   0.0000
  29 C29          2.6462    -0.0979    -3.1300 C.ar         1    LIG   0.0000
  30 C30          2.4051     0.0260    -0.0190 C.ar         1    LIG   0.0000
  31 C31          3.7332    -0.7151    -0.0350 C.3          1    LIG   0.0000
  32 H            2.5443     2.3051    -2.3688 H            1    LIG   0.0000
  33 H            0.2498    -2.5322    -0.0102 H            1    LIG   0.0000
  34 H            1.6560    -2.5415    -0.8405 H            1    LIG   0.0000
  35 H            1.6718    -2.5492     0.7924 H            1    LIG   0.0000
  36 H           -0.8672    -0.5265     0.0094 H            1    LIG   0.0000
  37 H           -1.3378     3.0517    -1.9777 H            1    LIG   0.0000
  38 H           -2.1368     1.6276    -1.9768 H            1    LIG   0.0000
  39 H            1.1540     3.0981     0.0076 H            1    LIG   0.0000
  40 H            6.0063     3.0390    -0.4438 H            1    LIG   0.0000
  41 H            5.2098     4.3261    -1.0565 H            1    LIG   0.0000
  42 H            8.0823     3.2823    -1.6547 H            1    LIG   0.0000
  43 H            8.0478     2.8339    -5.7787 H            1    LIG   0.0000
  44 H            5.6505     2.8821    -5.7701 H            1    LIG   0.0000
  45 H            3.6188     2.6348    -4.5219 H            1    LIG   0.0000
  46 H            3.6084     3.9554    -3.5614 H            1    LIG   0.0000
  47 H            5.8099     0.7491    -2.5551 H            1    LIG   0.0000
  48 H            6.1379    -1.5693    -3.0644 H            1    LIG   0.0000
  49 H            4.2650    -2.9478    -3.6113 H            1    LIG   0.0000
  50 H            2.0626    -2.0245    -3.6530 H            1    LIG   0.0000
  51 H            1.7262     0.2938    -3.1469 H            1    LIG   0.0000
  52 H            3.5648    -1.7008    -0.0378 H            1    LIG   0.0000
  53 H            4.2462    -0.4623    -0.8554 H            1    LIG   0.0000
  54 H            4.2618    -0.4695     0.7775 H            1    LIG   0.0000
@<TRIPOS>BOND
   1        1        2 1
   2        2        3 ar
   3        3        4 ar
   4        4        5 1
   5        5        6 1
   6        5        7 2
   7        5        8 2
   8        4        9 ar
   9        9       10 ar
  10       10       11 1
  11       11       12 2
  12       11       13 am
  13       13       14 1
  14       14       15 1
  15       15       16 ar
  16       16       17 ar
  17       17       18 1
  18       17       19 ar
  19       19       20 ar
  20       20       21 ar
  21       21       15 ar
  22       21       22 1
  23       22       23 1
  24       23       13 1
  25       23       24 1
  26       24       25 ar
  27       25       26 ar
  28       26       27 ar
  29       27       28 ar
  30       28       29 ar
  31       29       24 ar
  32       10       30 ar
  33       30        2 ar
  34       30       31 1
  35       23       32 1
  36        1       33 1
  37        1       34 1
  38        1       35 1
  39        3       36 1
  40        6       37 1
  41        6       38 1
  42        9       39 1
  43       14       40 1
  44       14       41 1
  45       16       42 1
  46       19       43 1
  47       20       44 1
  48       22       45 1
  49       22       46 1
  50       25       47 1
  51       26       48 1
  52       27       49 1
  53       28       50 1
  54       29       51 1
  55       31       52 1
  56       31       53 1
  57       31       54 1

@<TRIPOS>MOLECULE

  54   57
SMALL
USER_CHARGES
@<TRIPOS>ATOM
   1 C1           1.1957    -2.2077    -0.0179 C.3          1    LIG   0.0000
   2 C2           1.2099    -0.6875    -0.0108 C.ar         1    LIG   0.0000
   3 C3          -0.0078    -0.0152     0.0037 C.ar         1    LIG   0.0000
   4 C4          -0.0177     1.3761     0.0103 C.ar         1    LIG   0.0000
   5 S5          -1.5352     2.2275     0.0286 S.o2         1    LIG   0.0000
   6 N6          -2.0235     2.5005    -1.5024 N.3          1    LIG   0.0000
   7 O7          -2.5227     1.4337     0.7131 O.2          1    LIG   0.0000
   8 O8          -1.3721     3.4845     0.7118 O.2          1    LIG   0.0000
   9 C9           1.1712     2.0983     0.0024 C.ar         1    LIG   0.0000
  10 C10          2.3844     1.4177    -0.0127 C.ar         1    LIG   0.0000
  11 C11          3.6100     2.1935    -0.0210 C.2          1    LIG   0.0000
  12 O12          4.1269     2.5098     1.0147 O.2          1    LIG   0.0000
  13 N13          4.1925     2.5749    -1.2429 N.am         1    LIG   0.0000
  14 C14          3.6327     2.2776    -2.5729 C.3          1    LIG   0.0000
  15 C15          3.3843     3.5747    -3.3268 C.ar         1    LIG   0.0000
  16 C16          2.5113     3.5855    -4.4191 C.ar         1    LIG   0.0000
  17 C17          2.3399     4.7751    -5.1158 C.ar         1    LIG   0.0000
  18 Cl18         1.2426     4.8077    -6.5164 Cl           1    LIG   0.0000
  19 C19          3.0106     5.9338    -4.7411 C.ar         1    LIG   0.0000
  20 C20          3.8614     5.9124    -3.6401 C.ar         1    LIG   0.0000
  21 C21          4.0390     4.7356    -2.9245 C.ar         1    LIG   0.0000
  22 C22          4.9427     4.7651    -1.7055 C.3          1    LIG   0.0000
  23 C23          5.4277     3.3582    -1.3927 C.3          1    LIG   0.0000
  24 C24          6.2450     3.3104    -0.1117 C.ar         1    LIG   0.0000
  25 C25          6.8900     4.4585     0.3362 C.ar         1    LIG   0.0000
  26 C26          7.6362     4.4057     1.5089 C.ar         1    LIG   0.0000
  27 C27          7.7312     3.2137     2.2206 C.ar         1    LIG   0.0000
  28 C28          7.0825     2.0704     1.7654 C.ar         1    LIG   0.0000
  29 C29          6.3346     2.1145     0.5931 C.ar         1    LIG   0.0000
  30 C30          2.4051     0.0260    -0.0190 C.ar         1    LIG   0.0000
  31 C31          3.7332    -0.7151    -0.0350 C.3          1    LIG   0.0000
  32 H            5.9673     3.0042    -2.1566 H            1    LIG   0.0000
  33 H            0.2498    -2.5322    -0.0102 H            1    LIG   0.0000
  34 H            1.6560    -2.5415    -0.8405 H            1    LIG   0.0000
  35 H            1.6718    -2.5492     0.7924 H            1    LIG   0.0000
  36 H           -0.8672    -0.5265     0.0094 H            1    LIG   0.0000
  37 H           -1.3378     3.0517    -1.9777 H            1    LIG   0.0000
  38 H           -2.1368     1.6276    -1.9768 H            1    LIG   0.0000
  39 H            1.1540     3.0981     0.0076 H            1    LIG   0.0000
  40 H            2.7694     1.7840    -2.4673 H            1    LIG   0.0000
  41 H            4.2787     1.7131    -3.0867 H            1    LIG   0.0000
  42 H            2.0224     2.7571    -4.6922 H            1    LIG   0.0000
  43 H            2.8823     6.7787    -5.2604 H            1    LIG   0.0000
  44 H            4.3443     6.7435    -3.3646 H            1    LIG   0.0000
  45 H            4.4335     5.1228    -0.9228 H            1    LIG   0.0000
  46 H            5.7293     5.3547    -1.8891 H            1    LIG   0.0000
  47 H            6.8182     5.3125    -0.1791 H            1    LIG   0.0000
  48 H            8.1046     5.2246     1.8406 H            1    LIG   0.0000
  49 H            8.2683     3.1788     3.0634 H            1    LIG   0.0000
  50 H            7.1537     1.2166     2.2810 H            1    LIG   0.0000
  51 H            5.8668     1.2955     0.2607 H            1    LIG   0.0000
  52 H            3.5648    -1.7008    -0.0378 H            1    LIG   0.0000
  53 H            4.2462    -0.4623    -0.8554 H            1    LIG   0.0000
  54 H            4.2618    -0.4695     0.7775 H            1    LIG   0.0000
@<TRIPOS>BOND
   1        1        2 1
   2        2        3 ar
   3        3        4 ar
   4        4        5 1
   5        5        6 1
   6        5        7 2
   7        5        8 2
   8        4        9 ar
   9        9       10 ar
  10       10       11 1
  11       11       12 2
  12       11       13 am
  13       13       14 1
  14       14       15 1
  15       15       16 ar
  16       16       17 ar
  17       17       18 1
  18       17       19 ar
  19       19       20 ar
  20       20       21 ar
  21       21       15 ar
  22       21       22 1
  23       22       23 1
  24       23       13 1
  25       23       24 1
  26       24       25 ar
  27       25       26 ar
  28       26       27 ar
  29       27       28 ar
  30       28       29 ar
  31       29       24 ar
  32       10       30 ar
  33       30        2 ar
  34       30       31 1
  35       23       32 1
  36        1       33 1
  37        1       34 1
  38        1       35 1
  39        3       36 1
  40        6       37 1
  41        6       38 1
  42        9       39 1
  43       14       40 1
  44       14       41 1
  45       16       42 1
  46       19       43 1
  47       20       44 1
  48       22       45 1
  49       22       46 1
  50       25       47 1
  51       26       48 1
  52       27       49 1
  53       28       50 1
  54       29       51 1
  55       31       52 1
  56       31       53 1
  57       31       54 1

