@<TRIPOS>MOLECULE
*****
 54 57 0 0 0
SMALL
USER_CHARGES

@<TRIPOS>ATOM
      1 C1          1.1957   -2.2077   -0.0179 C.3     1  LIG1        0.0000
      2 C2          1.2099   -0.6875   -0.0108 C.3     1  LIG1        0.0000
      3 C3         -0.0078   -0.0152    0.0037 C.3     1  LIG1        0.0000
      4 C4         -0.0177    1.3761    0.0103 C.3     1  LIG1        0.0000
      5 S5         -1.5352    2.2275    0.0286 S.O2    1  LIG1        0.0000
      6 N6         -2.0235    2.5005   -1.5024 N.3     1  LIG1        0.0000
      7 O7         -2.5227    1.4337    0.7131 O.2     1  LIG1        0.0000
      8 O8         -1.3721    3.4845    0.7118 O.2     1  LIG1        0.0000
      9 C9          1.1712    2.0983    0.0024 C.3     1  LIG1        0.0000
     10 C10         2.3844    1.4177   -0.0127 C.3     1  LIG1        0.0000
     11 C11         3.6100    2.1935   -0.0210 C.2     1  LIG1        0.0000
     12 O12         4.1269    2.5098    1.0147 O.2     1  LIG1        0.0000
     13 N13         4.1896    2.5730   -1.2368 N.am    1  LIG1        0.0000
     14 C14         5.4326    3.3613   -1.1966 C.3     1  LIG1        0.0000
     15 C15         6.1846    3.2016   -2.5099 C.3     1  LIG1        0.0000
     16 C16         7.5747    3.1878   -2.5111 C.3     1  LIG1        0.0000
     17 C17         8.2513    3.0411   -3.7179 C.3     1  LIG1        0.0000
     18 Cl18       10.0308    2.9862   -3.7400 Cl      1  LIG1        0.0000
     19 C19         7.5512    2.9289   -4.9159 C.3     1  LIG1        0.0000
     20 C20         6.1593    2.9489   -4.9118 C.3     1  LIG1        0.0000
     21 C21         5.4841    3.0627   -3.7019 C.3     1  LIG1        0.0000
     22 C22         3.9652    3.0276   -3.6700 C.3     1  LIG1        0.0000
     23 C23         3.5271    2.1668   -2.4912 C.3     1  LIG1        0.0000
     24 C24         3.7430    0.6966   -2.8123 C.3     1  LIG1        0.0000
     25 C25         5.0293    0.1679   -2.7849 C.3     1  LIG1        0.0000
     26 C26         5.2178   -1.1781   -3.0807 C.3     1  LIG1        0.0000
     27 C27         4.1263   -1.9804   -3.3992 C.3     1  LIG1        0.0000
     28 C28         2.8434   -1.4433   -3.4239 C.3     1  LIG1        0.0000
     29 C29         2.6462   -0.0979   -3.1300 C.3     1  LIG1        0.0000
     30 C30         2.4051    0.0260   -0.0190 C.3     1  LIG1        0.0000
     31 C31         3.7332   -0.7151   -0.0350 C.3     1  LIG1        0.0000
     32 H           2.5443    2.3051   -2.3688 H       1  LIG1        0.0000
     33 H           0.2498   -2.5322   -0.0102 H       1  LIG1        0.0000
     34 H           1.6560   -2.5415   -0.8405 H       1  LIG1        0.0000
     35 H           1.6718   -2.5492    0.7924 H       1  LIG1        0.0000
     36 H          -0.8672   -0.5265    0.0094 H       1  LIG1        0.0000
     37 H          -1.3378    3.0517   -1.9777 H       1  LIG1        0.0000
     38 H          -2.1368    1.6276   -1.9768 H       1  LIG1        0.0000
     39 H           1.1540    3.0981    0.0076 H       1  LIG1        0.0000
     40 H           6.0063    3.0390   -0.4438 H       1  LIG1        0.0000
     41 H           5.2098    4.3261   -1.0565 H       1  LIG1        0.0000
     42 H           8.0823    3.2823   -1.6547 H       1  LIG1        0.0000
     43 H           8.0478    2.8339   -5.7787 H       1  LIG1        0.0000
     44 H           5.6505    2.8821   -5.7701 H       1  LIG1        0.0000
     45 H           3.6188    2.6348   -4.5219 H       1  LIG1        0.0000
     46 H           3.6084    3.9554   -3.5614 H       1  LIG1        0.0000
     47 H           5.8099    0.7491   -2.5551 H       1  LIG1        0.0000
     48 H           6.1379   -1.5693   -3.0644 H       1  LIG1        0.0000
     49 H           4.2650   -2.9478   -3.6113 H       1  LIG1        0.0000
     50 H           2.0626   -2.0245   -3.6530 H       1  LIG1        0.0000
     51 H           1.7262    0.2938   -3.1469 H       1  LIG1        0.0000
     52 H           3.5648   -1.7008   -0.0378 H       1  LIG1        0.0000
     53 H           4.2462   -0.4623   -0.8554 H       1  LIG1        0.0000
     54 H           4.2618   -0.4695    0.7775 H       1  LIG1        0.0000
@<TRIPOS>BOND
     1     1     2    1
     2     2     3   ar
     3     3     4   ar
     4     4     5    1
     5     5     6    1
     6     5     7    2
     7     5     8    2
     8     4     9   ar
     9     9    10   ar
    10    10    11    1
    11    11    12    2
    12    11    13   am
    13    13    14    1
    14    14    15    1
    15    15    16   ar
    16    16    17   ar
    17    17    18    1
    18    17    19   ar
    19    19    20   ar
    20    20    21   ar
    21    21    15   ar
    22    21    22    1
    23    22    23    1
    24    23    13    1
    25    23    24    1
    26    24    25   ar
    27    25    26   ar
    28    26    27   ar
    29    27    28   ar
    30    28    29   ar
    31    29    24   ar
    32    10    30   ar
    33    30     2   ar
    34    30    31    1
    35    23    32    1
    36     1    33    1
    37     1    34    1
    38     1    35    1
    39     3    36    1
    40     6    37    1
    41     6    38    1
    42     9    39    1
    43    14    40    1
    44    14    41    1
    45    16    42    1
    46    19    43    1
    47    20    44    1
    48    22    45    1
    49    22    46    1
    50    25    47    1
    51    26    48    1
    52    27    49    1
    53    28    50    1
    54    29    51    1
    55    31    52    1
    56    31    53    1
    57    31    54    1
