@<TRIPOS>MOLECULE
*****
 54 57 0 0 0
SMALL
USER_CHARGES

@<TRIPOS>ATOM
      1 C1          1.1957   -2.2077   -0.0179 C.3     1  LIG1        0.0000
      2 C2          1.2099   -0.6875   -0.0108 C.3     1  LIG1        0.0000
      3 C3         -0.0078   -0.0152    0.0037 C.3     1  LIG1        0.0000
      4 C4         -0.0177    1.3761    0.0103 C.3     1  LIG1        0.0000
      5 S5         -1.5352    2.2275    0.0286 S.O2    1  LIG1        0.0000
      6 N6         -2.0235    2.5005   -1.5024 N.3     1  LIG1        0.0000
      7 O7         -2.5227    1.4337    0.7131 O.2     1  LIG1        0.0000
      8 O8         -1.3721    3.4845    0.7118 O.2     1  LIG1        0.0000
      9 C9          1.1712    2.0983    0.0024 C.3     1  LIG1        0.0000
     10 C10         2.3844    1.4177   -0.0127 C.3     1  LIG1        0.0000
     11 C11         3.6100    2.1935   -0.0210 C.2     1  LIG1        0.0000
     12 O12         4.1269    2.5098    1.0147 O.2     1  LIG1        0.0000
     13 N13         4.1925    2.5749   -1.2429 N.am    1  LIG1        0.0000
     14 C14         3.6327    2.2776   -2.5729 C.3     1  LIG1        0.0000
     15 C15         3.3843    3.5747   -3.3268 C.3     1  LIG1        0.0000
     16 C16         2.5113    3.5855   -4.4191 C.3     1  LIG1        0.0000
     17 C17         2.3399    4.7751   -5.1158 C.3     1  LIG1        0.0000
     18 Cl18        1.2426    4.8077   -6.5164 Cl      1  LIG1        0.0000
     19 C19         3.0106    5.9338   -4.7411 C.3     1  LIG1        0.0000
     20 C20         3.8614    5.9124   -3.6401 C.3     1  LIG1        0.0000
     21 C21         4.0390    4.7356   -2.9245 C.3     1  LIG1        0.0000
     22 C22         4.9427    4.7651   -1.7055 C.3     1  LIG1        0.0000
     23 C23         5.4277    3.3582   -1.3927 C.3     1  LIG1        0.0000
     24 C24         6.2450    3.3104   -0.1117 C.3     1  LIG1        0.0000
     25 C25         6.8900    4.4585    0.3362 C.3     1  LIG1        0.0000
     26 C26         7.6362    4.4057    1.5089 C.3     1  LIG1        0.0000
     27 C27         7.7312    3.2137    2.2206 C.3     1  LIG1        0.0000
     28 C28         7.0825    2.0704    1.7654 C.3     1  LIG1        0.0000
     29 C29         6.3346    2.1145    0.5931 C.3     1  LIG1        0.0000
     30 C30         2.4051    0.0260   -0.0190 C.3     1  LIG1        0.0000
     31 C31         3.7332   -0.7151   -0.0350 C.3     1  LIG1        0.0000
     32 H           5.9673    3.0042   -2.1566 H       1  LIG1        0.0000
     33 H           0.2498   -2.5322   -0.0102 H       1  LIG1        0.0000
     34 H           1.6560   -2.5415   -0.8405 H       1  LIG1        0.0000
     35 H           1.6718   -2.5492    0.7924 H       1  LIG1        0.0000
     36 H          -0.8672   -0.5265    0.0094 H       1  LIG1        0.0000
     37 H          -1.3378    3.0517   -1.9777 H       1  LIG1        0.0000
     38 H          -2.1368    1.6276   -1.9768 H       1  LIG1        0.0000
     39 H           1.1540    3.0981    0.0076 H       1  LIG1        0.0000
     40 H           2.7694    1.7840   -2.4673 H       1  LIG1        0.0000
     41 H           4.2787    1.7131   -3.0867 H       1  LIG1        0.0000
     42 H           2.0224    2.7571   -4.6922 H       1  LIG1        0.0000
     43 H           2.8823    6.7787   -5.2604 H       1  LIG1        0.0000
     44 H           4.3443    6.7435   -3.3646 H       1  LIG1        0.0000
     45 H           4.4335    5.1228   -0.9228 H       1  LIG1        0.0000
     46 H           5.7293    5.3547   -1.8891 H       1  LIG1        0.0000
     47 H           6.8182    5.3125   -0.1791 H       1  LIG1        0.0000
     48 H           8.1046    5.2246    1.8406 H       1  LIG1        0.0000
     49 H           8.2683    3.1788    3.0634 H       1  LIG1        0.0000
     50 H           7.1537    1.2166    2.2810 H       1  LIG1        0.0000
     51 H           5.8668    1.2955    0.2607 H       1  LIG1        0.0000
     52 H           3.5648   -1.7008   -0.0378 H       1  LIG1        0.0000
     53 H           4.2462   -0.4623   -0.8554 H       1  LIG1        0.0000
     54 H           4.2618   -0.4695    0.7775 H       1  LIG1        0.0000
@<TRIPOS>BOND
     1     1     2    1
     2     2     3   ar
     3     3     4   ar
     4     4     5    1
     5     5     6    1
     6     5     7    2
     7     5     8    2
     8     4     9   ar
     9     9    10   ar
    10    10    11    1
    11    11    12    2
    12    11    13   am
    13    13    14    1
    14    14    15    1
    15    15    16   ar
    16    16    17   ar
    17    17    18    1
    18    17    19   ar
    19    19    20   ar
    20    20    21   ar
    21    21    15   ar
    22    21    22    1
    23    22    23    1
    24    23    13    1
    25    23    24    1
    26    24    25   ar
    27    25    26   ar
    28    26    27   ar
    29    27    28   ar
    30    28    29   ar
    31    29    24   ar
    32    10    30   ar
    33    30     2   ar
    34    30    31    1
    35    23    32    1
    36     1    33    1
    37     1    34    1
    38     1    35    1
    39     3    36    1
    40     6    37    1
    41     6    38    1
    42     9    39    1
    43    14    40    1
    44    14    41    1
    45    16    42    1
    46    19    43    1
    47    20    44    1
    48    22    45    1
    49    22    46    1
    50    25    47    1
    51    26    48    1
    52    27    49    1
    53    28    50    1
    54    29    51    1
    55    31    52    1
    56    31    53    1
    57    31    54    1
