@<TRIPOS>MOLECULE

  56   60
SMALL
USER_CHARGES
@<TRIPOS>ATOM
   1 C1          -1.8351     2.7057     3.5884 C.3          1    LIG   0.0000
   2 O2          -1.1615     2.2476     2.4253 O.3          1    LIG   0.0000
   3 C3          -1.7047     2.6309     1.2501 C.ar         1    LIG   0.0000
   4 C4          -2.8494     3.4206     1.2695 C.ar         1    LIG   0.0000
   5 C5          -3.4314     3.8316     0.0744 C.ar         1    LIG   0.0000
   6 C6          -2.8688     3.4519    -1.1400 C.ar         1    LIG   0.0000
   7 C7          -1.7250     2.6608    -1.1597 C.ar         1    LIG   0.0000
   8 C8          -1.1423     2.2501     0.0349 C.ar         1    LIG   0.0000
   9 C9           0.0502     1.4251     0.0140 C.2          1    LIG   0.0000
  10 N10          1.2906     1.8483     0.0086 N.2          1    LIG   0.0000
  11 N11          2.1113     0.8202    -0.0137 N.pl3        1    LIG   0.0000
  12 C12          3.5090     0.9029    -0.0286 C.ar         1    LIG   0.0000
  13 C13          4.1248     2.1502    -0.0198 C.ar         1    LIG   0.0000
  14 C14          5.5137     2.2230    -0.0354 C.ar         1    LIG   0.0000
  15 C15          6.2719     1.0563    -0.0592 C.ar         1    LIG   0.0000
  16 C16          5.6476    -0.1868    -0.0676 C.ar         1    LIG   0.0000
  17 C17          4.2588    -0.2685    -0.0527 C.ar         1    LIG   0.0000
  18 C18          1.4074    -0.3441    -0.0181 C.2          1    LIG   0.0000
  19 C19          0.0959     0.0164    -0.0018 C.2          1    LIG   0.0000
  20 C20         -1.0420    -0.8838     0.0003 C.2          1    LIG   0.0000
  21 O21         -1.1997    -1.6538    -0.9065 O.2          1    LIG   0.0000
  22 N22         -1.9365    -0.8547     1.0376 N.pl3        1    LIG  -1.0000
  23 S23         -3.2974    -1.9695     0.9866 S.o2         1    LIG   0.0000
  24 O24         -2.8538    -3.2462     0.4897 O.2          1    LIG   0.0000
  25 O25         -3.8355    -2.1311     2.3125 O.2          1    LIG   0.0000
  26 C26         -4.5305    -1.3328    -0.0670 C.2          1    LIG   0.0000
  27 C27         -4.6324    -1.5784    -1.4594 C.2          1    LIG   0.0000
  28 N28         -5.7026    -0.9244    -1.8646 N.2          1    LIG   0.0000
  29 N29         -6.2755    -0.2990    -0.8533 N.pl3        1    LIG   0.0000
  30 C30         -7.4279     0.4937    -0.9171 C.ar         1    LIG   0.0000
  31 C31         -8.0724     0.6745    -2.1365 C.ar         1    LIG   0.0000
  32 C32         -9.2161     1.4642    -2.1907 C.ar         1    LIG   0.0000
  33 C33         -9.7042     2.0631    -1.0333 C.ar         1    LIG   0.0000
  34 C34         -9.0535     1.8766     0.1819 C.ar         1    LIG   0.0000
  35 C35         -7.9085     1.0888     0.2448 C.ar         1    LIG   0.0000
  36 C36         -5.5715    -0.5277     0.2902 C.2          1    LIG   0.0000
  37 H           -1.3597     2.3717     4.4023 H            1    LIG   0.0000
  38 H           -1.8458     3.7056     3.5954 H            1    LIG   0.0000
  39 H           -2.7743     2.3624     3.5866 H            1    LIG   0.0000
  40 H           -3.2541     3.6930     2.1424 H            1    LIG   0.0000
  41 H           -4.2541     4.3999     0.0883 H            1    LIG   0.0000
  42 H           -3.2867     3.7478    -1.9989 H            1    LIG   0.0000
  43 H           -1.3215     2.3871    -2.0327 H            1    LIG   0.0000
  44 H            3.5750     2.9853    -0.0025 H            1    LIG   0.0000
  45 H            5.9676     3.1140    -0.0296 H            1    LIG   0.0000
  46 H            7.2703     1.1118    -0.0704 H            1    LIG   0.0000
  47 H            6.1973    -1.0220    -0.0842 H            1    LIG   0.0000
  48 H            3.8047    -1.1594    -0.0594 H            1    LIG   0.0000
  49 H            1.7777    -1.2729    -0.0306 H            1    LIG   0.0000
  50 H           -4.0182    -2.1342    -2.0196 H            1    LIG   0.0000
  51 H           -7.7173     0.2415    -2.9650 H            1    LIG   0.0000
  52 H           -9.6878     1.6016    -3.0617 H            1    LIG   0.0000
  53 H          -10.5268     2.6303    -1.0754 H            1    LIG   0.0000
  54 H           -9.4088     2.3090     1.0107 H            1    LIG   0.0000
  55 H           -7.4362     0.9519     1.1155 H            1    LIG   0.0000
  56 H           -5.7761    -0.1771     1.2041 H            1    LIG   0.0000
@<TRIPOS>BOND
   1        1        2 1
   2        2        3 1
   3        3        4 ar
   4        4        5 ar
   5        5        6 ar
   6        6        7 ar
   7        7        8 ar
   8        8        3 ar
   9        8        9 1
  10        9       10 2
  11       10       11 1
  12       11       12 1
  13       12       13 ar
  14       13       14 ar
  15       14       15 ar
  16       15       16 ar
  17       16       17 ar
  18       17       12 ar
  19       11       18 1
  20       18       19 2
  21       19        9 1
  22       19       20 1
  23       20       21 2
  24       20       22 1
  25       22       23 1
  26       23       24 2
  27       23       25 2
  28       23       26 1
  29       26       27 1
  30       27       28 2
  31       28       29 1
  32       29       30 1
  33       30       31 ar
  34       31       32 ar
  35       32       33 ar
  36       33       34 ar
  37       34       35 ar
  38       35       30 ar
  39       29       36 1
  40       36       26 2
  41        1       37 1
  42        1       38 1
  43        1       39 1
  44        4       40 1
  45        5       41 1
  46        6       42 1
  47        7       43 1
  48       13       44 1
  49       14       45 1
  50       15       46 1
  51       16       47 1
  52       17       48 1
  53       18       49 1
  54       27       50 1
  55       31       51 1
  56       32       52 1
  57       33       53 1
  58       34       54 1
  59       35       55 1
  60       36       56 1

@<TRIPOS>MOLECULE

  56   60
SMALL
USER_CHARGES
@<TRIPOS>ATOM
   1 C1          -1.8351     2.7057     3.5884 C.3          1    LIG   0.0000
   2 O2          -1.1615     2.2476     2.4253 O.3          1    LIG   0.0000
   3 C3          -1.7047     2.6309     1.2501 C.ar         1    LIG   0.0000
   4 C4          -2.8494     3.4206     1.2695 C.ar         1    LIG   0.0000
   5 C5          -3.4314     3.8316     0.0744 C.ar         1    LIG   0.0000
   6 C6          -2.8688     3.4519    -1.1400 C.ar         1    LIG   0.0000
   7 C7          -1.7250     2.6608    -1.1597 C.ar         1    LIG   0.0000
   8 C8          -1.1423     2.2501     0.0349 C.ar         1    LIG   0.0000
   9 C9           0.0502     1.4251     0.0140 C.2          1    LIG   0.0000
  10 N10          1.2906     1.8483     0.0086 N.2          1    LIG   0.0000
  11 N11          2.1113     0.8202    -0.0137 N.pl3        1    LIG   0.0000
  12 C12          3.5090     0.9029    -0.0286 C.ar         1    LIG   0.0000
  13 C13          4.1248     2.1502    -0.0198 C.ar         1    LIG   0.0000
  14 C14          5.5137     2.2230    -0.0354 C.ar         1    LIG   0.0000
  15 C15          6.2719     1.0563    -0.0592 C.ar         1    LIG   0.0000
  16 C16          5.6476    -0.1868    -0.0676 C.ar         1    LIG   0.0000
  17 C17          4.2588    -0.2685    -0.0527 C.ar         1    LIG   0.0000
  18 C18          1.4074    -0.3441    -0.0181 C.2          1    LIG   0.0000
  19 C19          0.0959     0.0164    -0.0018 C.2          1    LIG   0.0000
  20 C20         -1.0420    -0.8838     0.0003 C.2          1    LIG   0.0000
  21 O21         -1.1997    -1.6538    -0.9065 O.2          1    LIG   0.0000
  22 N22         -1.9365    -0.8547     1.0376 N.pl3        1    LIG  -1.0000
  23 S23         -3.2974    -1.9695     0.9866 S.o2         1    LIG   0.0000
  24 O24         -4.3393    -1.4954     1.8603 O.2          1    LIG   0.0000
  25 O25         -3.8006    -2.0514    -0.3601 O.2          1    LIG   0.0000
  26 C26         -2.7753    -3.5478     1.5085 C.2          1    LIG   0.0000
  27 C27         -2.7925    -4.0218     2.8443 C.2          1    LIG   0.0000
  28 N28         -2.3301    -5.2551     2.7963 N.2          1    LIG   0.0000
  29 N29         -2.0310    -5.5912     1.5556 N.pl3        1    LIG   0.0000
  30 C30         -1.5128    -6.8219     1.1342 C.ar         1    LIG   0.0000
  31 C31         -1.2700    -7.8229     2.0690 C.ar         1    LIG   0.0000
  32 C32         -0.7544    -9.0420     1.6417 C.ar         1    LIG   0.0000
  33 C33         -0.4873    -9.2503     0.2919 C.ar         1    LIG   0.0000
  34 C34         -0.7334    -8.2437    -0.6361 C.ar         1    LIG   0.0000
  35 C35         -1.2485    -7.0211    -0.2169 C.ar         1    LIG   0.0000
  36 C36         -2.2935    -4.5493     0.7183 C.2          1    LIG   0.0000
  37 H           -1.3597     2.3717     4.4023 H            1    LIG   0.0000
  38 H           -1.8458     3.7056     3.5954 H            1    LIG   0.0000
  39 H           -2.7743     2.3624     3.5866 H            1    LIG   0.0000
  40 H           -3.2541     3.6930     2.1424 H            1    LIG   0.0000
  41 H           -4.2541     4.3999     0.0883 H            1    LIG   0.0000
  42 H           -3.2867     3.7478    -1.9989 H            1    LIG   0.0000
  43 H           -1.3215     2.3871    -2.0327 H            1    LIG   0.0000
  44 H            3.5750     2.9853    -0.0025 H            1    LIG   0.0000
  45 H            5.9676     3.1140    -0.0296 H            1    LIG   0.0000
  46 H            7.2703     1.1118    -0.0704 H            1    LIG   0.0000
  47 H            6.1973    -1.0220    -0.0842 H            1    LIG   0.0000
  48 H            3.8047    -1.1594    -0.0594 H            1    LIG   0.0000
  49 H            1.7777    -1.2729    -0.0306 H            1    LIG   0.0000
  50 H           -3.0938    -3.5227     3.6568 H            1    LIG   0.0000
  51 H           -1.4640    -7.6678     3.0377 H            1    LIG   0.0000
  52 H           -0.5756    -9.7690     2.3046 H            1    LIG   0.0000
  53 H           -0.1167   -10.1278    -0.0123 H            1    LIG   0.0000
  54 H           -0.5401    -8.3989    -1.6049 H            1    LIG   0.0000
  55 H           -1.4267    -6.2937    -0.8795 H            1    LIG   0.0000
  56 H           -2.1602    -4.5240    -0.2724 H            1    LIG   0.0000
@<TRIPOS>BOND
   1        1        2 1
   2        2        3 1
   3        3        4 ar
   4        4        5 ar
   5        5        6 ar
   6        6        7 ar
   7        7        8 ar
   8        8        3 ar
   9        8        9 1
  10        9       10 2
  11       10       11 1
  12       11       12 1
  13       12       13 ar
  14       13       14 ar
  15       14       15 ar
  16       15       16 ar
  17       16       17 ar
  18       17       12 ar
  19       11       18 1
  20       18       19 2
  21       19        9 1
  22       19       20 1
  23       20       21 2
  24       20       22 1
  25       22       23 1
  26       23       24 2
  27       23       25 2
  28       23       26 1
  29       26       27 1
  30       27       28 2
  31       28       29 1
  32       29       30 1
  33       30       31 ar
  34       31       32 ar
  35       32       33 ar
  36       33       34 ar
  37       34       35 ar
  38       35       30 ar
  39       29       36 1
  40       36       26 2
  41        1       37 1
  42        1       38 1
  43        1       39 1
  44        4       40 1
  45        5       41 1
  46        6       42 1
  47        7       43 1
  48       13       44 1
  49       14       45 1
  50       15       46 1
  51       16       47 1
  52       17       48 1
  53       18       49 1
  54       27       50 1
  55       31       51 1
  56       32       52 1
  57       33       53 1
  58       34       54 1
  59       35       55 1
  60       36       56 1

@<TRIPOS>MOLECULE

  56   60
SMALL
USER_CHARGES
@<TRIPOS>ATOM
   1 C1          -1.8351     2.7057     3.5884 C.3          1    LIG   0.0000
   2 O2          -1.1615     2.2476     2.4253 O.3          1    LIG   0.0000
   3 C3          -1.7047     2.6309     1.2501 C.ar         1    LIG   0.0000
   4 C4          -2.8494     3.4206     1.2695 C.ar         1    LIG   0.0000
   5 C5          -3.4314     3.8316     0.0744 C.ar         1    LIG   0.0000
   6 C6          -2.8688     3.4519    -1.1400 C.ar         1    LIG   0.0000
   7 C7          -1.7250     2.6608    -1.1597 C.ar         1    LIG   0.0000
   8 C8          -1.1423     2.2501     0.0349 C.ar         1    LIG   0.0000
   9 C9           0.0502     1.4251     0.0140 C.2          1    LIG   0.0000
  10 N10          1.2906     1.8483     0.0086 N.2          1    LIG   0.0000
  11 N11          2.1113     0.8202    -0.0137 N.pl3        1    LIG   0.0000
  12 C12          3.5090     0.9029    -0.0286 C.ar         1    LIG   0.0000
  13 C13          4.1248     2.1502    -0.0198 C.ar         1    LIG   0.0000
  14 C14          5.5137     2.2230    -0.0354 C.ar         1    LIG   0.0000
  15 C15          6.2719     1.0563    -0.0592 C.ar         1    LIG   0.0000
  16 C16          5.6476    -0.1868    -0.0676 C.ar         1    LIG   0.0000
  17 C17          4.2588    -0.2685    -0.0527 C.ar         1    LIG   0.0000
  18 C18          1.4074    -0.3441    -0.0181 C.2          1    LIG   0.0000
  19 C19          0.0959     0.0164    -0.0018 C.2          1    LIG   0.0000
  20 C20         -1.0420    -0.8838     0.0003 C.2          1    LIG   0.0000
  21 O21         -1.1997    -1.6538    -0.9065 O.2          1    LIG   0.0000
  22 N22         -1.9365    -0.8547     1.0376 N.pl3        1    LIG  -1.0000
  23 S23         -1.6329    -1.9010     2.4200 S.o2         1    LIG   0.0000
  24 O24         -0.2244    -1.9042     2.7194 O.2          1    LIG   0.0000
  25 O25         -2.3650    -1.4141     3.5604 O.2          1    LIG   0.0000
  26 C26         -2.1510    -3.5221     2.0462 C.2          1    LIG   0.0000
  27 C27         -1.3463    -4.5294     1.4569 C.2          1    LIG   0.0000
  28 N28         -2.1150    -5.5956     1.3598 N.2          1    LIG   0.0000
  29 N29         -3.3198    -5.3447     1.8367 N.pl3        1    LIG   0.0000
  30 C30         -4.3921    -6.2436     1.8894 C.ar         1    LIG   0.0000
  31 C31         -4.2293    -7.5383     1.4075 C.ar         1    LIG   0.0000
  32 C32         -5.3000    -8.4243     1.4632 C.ar         1    LIG   0.0000
  33 C33         -6.5174    -8.0127     1.9970 C.ar         1    LIG   0.0000
  34 C34         -6.6712    -6.7161     2.4769 C.ar         1    LIG   0.0000
  35 C35         -5.6055    -5.8233     2.4243 C.ar         1    LIG   0.0000
  36 C36         -3.3845    -4.0566     2.2749 C.2          1    LIG   0.0000
  37 H           -1.3597     2.3717     4.4023 H            1    LIG   0.0000
  38 H           -1.8458     3.7056     3.5954 H            1    LIG   0.0000
  39 H           -2.7743     2.3624     3.5866 H            1    LIG   0.0000
  40 H           -3.2541     3.6930     2.1424 H            1    LIG   0.0000
  41 H           -4.2541     4.3999     0.0883 H            1    LIG   0.0000
  42 H           -3.2867     3.7478    -1.9989 H            1    LIG   0.0000
  43 H           -1.3215     2.3871    -2.0327 H            1    LIG   0.0000
  44 H            3.5750     2.9853    -0.0025 H            1    LIG   0.0000
  45 H            5.9676     3.1140    -0.0296 H            1    LIG   0.0000
  46 H            7.2703     1.1118    -0.0704 H            1    LIG   0.0000
  47 H            6.1973    -1.0220    -0.0842 H            1    LIG   0.0000
  48 H            3.8047    -1.1594    -0.0594 H            1    LIG   0.0000
  49 H            1.7777    -1.2729    -0.0306 H            1    LIG   0.0000
  50 H           -0.3909    -4.4478     1.1730 H            1    LIG   0.0000
  51 H           -3.3521    -7.8288     1.0252 H            1    LIG   0.0000
  52 H           -5.1949    -9.3575     1.1195 H            1    LIG   0.0000
  53 H           -7.2854    -8.6520     2.0357 H            1    LIG   0.0000
  54 H           -7.5481    -6.4256     2.8599 H            1    LIG   0.0000
  55 H           -5.7106    -4.8898     2.7672 H            1    LIG   0.0000
  56 H           -4.1744    -3.5972     2.6811 H            1    LIG   0.0000
@<TRIPOS>BOND
   1        1        2 1
   2        2        3 1
   3        3        4 ar
   4        4        5 ar
   5        5        6 ar
   6        6        7 ar
   7        7        8 ar
   8        8        3 ar
   9        8        9 1
  10        9       10 2
  11       10       11 1
  12       11       12 1
  13       12       13 ar
  14       13       14 ar
  15       14       15 ar
  16       15       16 ar
  17       16       17 ar
  18       17       12 ar
  19       11       18 1
  20       18       19 2
  21       19        9 1
  22       19       20 1
  23       20       21 2
  24       20       22 1
  25       22       23 1
  26       23       24 2
  27       23       25 2
  28       23       26 1
  29       26       27 1
  30       27       28 2
  31       28       29 1
  32       29       30 1
  33       30       31 ar
  34       31       32 ar
  35       32       33 ar
  36       33       34 ar
  37       34       35 ar
  38       35       30 ar
  39       29       36 1
  40       36       26 2
  41        1       37 1
  42        1       38 1
  43        1       39 1
  44        4       40 1
  45        5       41 1
  46        6       42 1
  47        7       43 1
  48       13       44 1
  49       14       45 1
  50       15       46 1
  51       16       47 1
  52       17       48 1
  53       18       49 1
  54       27       50 1
  55       31       51 1
  56       32       52 1
  57       33       53 1
  58       34       54 1
  59       35       55 1
  60       36       56 1

@<TRIPOS>MOLECULE

  56   60
SMALL
USER_CHARGES
@<TRIPOS>ATOM
   1 C1          -1.8351     2.7057     3.5884 C.3          1    LIG   0.0000
   2 O2          -1.1615     2.2476     2.4253 O.3          1    LIG   0.0000
   3 C3          -1.7047     2.6309     1.2501 C.ar         1    LIG   0.0000
   4 C4          -2.8494     3.4206     1.2695 C.ar         1    LIG   0.0000
   5 C5          -3.4314     3.8316     0.0744 C.ar         1    LIG   0.0000
   6 C6          -2.8688     3.4519    -1.1400 C.ar         1    LIG   0.0000
   7 C7          -1.7250     2.6608    -1.1597 C.ar         1    LIG   0.0000
   8 C8          -1.1423     2.2501     0.0349 C.ar         1    LIG   0.0000
   9 C9           0.0502     1.4251     0.0140 C.2          1    LIG   0.0000
  10 N10          1.2906     1.8483     0.0086 N.2          1    LIG   0.0000
  11 N11          2.1113     0.8202    -0.0137 N.pl3        1    LIG   0.0000
  12 C12          3.5090     0.9029    -0.0286 C.ar         1    LIG   0.0000
  13 C13          4.1248     2.1502    -0.0198 C.ar         1    LIG   0.0000
  14 C14          5.5137     2.2230    -0.0354 C.ar         1    LIG   0.0000
  15 C15          6.2719     1.0563    -0.0592 C.ar         1    LIG   0.0000
  16 C16          5.6476    -0.1868    -0.0676 C.ar         1    LIG   0.0000
  17 C17          4.2588    -0.2685    -0.0527 C.ar         1    LIG   0.0000
  18 C18          1.4074    -0.3441    -0.0181 C.2          1    LIG   0.0000
  19 C19          0.0959     0.0164    -0.0018 C.2          1    LIG   0.0000
  20 C20         -1.0420    -0.8838     0.0003 C.2          1    LIG   0.0000
  21 O21         -1.1997    -1.6538    -0.9065 O.2          1    LIG   0.0000
  22 N22         -1.9365    -0.8547     1.0376 N.pl3        1    LIG  -1.0000
  23 S23         -1.6329    -1.9010     2.4200 S.o2         1    LIG   0.0000
  24 O24         -2.8560    -2.0908     3.1560 O.2          1    LIG   0.0000
  25 O25         -1.1471    -3.1760     1.9594 O.2          1    LIG   0.0000
  26 C26         -0.4404    -1.1645     3.4551 C.2          1    LIG   0.0000
  27 C27         -0.7143    -0.2839     4.5316 C.2          1    LIG   0.0000
  28 N28          0.4564     0.0271     5.0511 N.2          1    LIG   0.0000
  29 N29          1.4301    -0.5807     4.3996 N.pl3        1    LIG   0.0000
  30 C30          2.7992    -0.4779     4.6746 C.ar         1    LIG   0.0000
  31 C31          3.2322     0.3275     5.7228 C.ar         1    LIG   0.0000
  32 C32          4.5941     0.4243     5.9883 C.ar         1    LIG   0.0000
  33 C33          5.5071    -0.2802     5.2095 C.ar         1    LIG   0.0000
  34 C34          5.0652    -1.0835     4.1633 C.ar         1    LIG   0.0000
  35 C35          3.7047    -1.1854     3.8906 C.ar         1    LIG   0.0000
  36 C36          0.9110    -1.3354     3.3915 C.2          1    LIG   0.0000
  37 H           -1.3597     2.3717     4.4023 H            1    LIG   0.0000
  38 H           -1.8458     3.7056     3.5954 H            1    LIG   0.0000
  39 H           -2.7743     2.3624     3.5866 H            1    LIG   0.0000
  40 H           -3.2541     3.6930     2.1424 H            1    LIG   0.0000
  41 H           -4.2541     4.3999     0.0883 H            1    LIG   0.0000
  42 H           -3.2867     3.7478    -1.9989 H            1    LIG   0.0000
  43 H           -1.3215     2.3871    -2.0327 H            1    LIG   0.0000
  44 H            3.5750     2.9853    -0.0025 H            1    LIG   0.0000
  45 H            5.9676     3.1140    -0.0296 H            1    LIG   0.0000
  46 H            7.2703     1.1118    -0.0704 H            1    LIG   0.0000
  47 H            6.1973    -1.0220    -0.0842 H            1    LIG   0.0000
  48 H            3.8047    -1.1594    -0.0594 H            1    LIG   0.0000
  49 H            1.7777    -1.2729    -0.0306 H            1    LIG   0.0000
  50 H           -1.6119     0.0359     4.8348 H            1    LIG   0.0000
  51 H            2.5716     0.8313     6.2794 H            1    LIG   0.0000
  52 H            4.9173     1.0003     6.7391 H            1    LIG   0.0000
  53 H            6.4857    -0.2087     5.4028 H            1    LIG   0.0000
  54 H            5.7256    -1.5879     3.6071 H            1    LIG   0.0000
  55 H            3.3814    -1.7608     3.1393 H            1    LIG   0.0000
  56 H            1.4171    -1.8991     2.7387 H            1    LIG   0.0000
@<TRIPOS>BOND
   1        1        2 1
   2        2        3 1
   3        3        4 ar
   4        4        5 ar
   5        5        6 ar
   6        6        7 ar
   7        7        8 ar
   8        8        3 ar
   9        8        9 1
  10        9       10 2
  11       10       11 1
  12       11       12 1
  13       12       13 ar
  14       13       14 ar
  15       14       15 ar
  16       15       16 ar
  17       16       17 ar
  18       17       12 ar
  19       11       18 1
  20       18       19 2
  21       19        9 1
  22       19       20 1
  23       20       21 2
  24       20       22 1
  25       22       23 1
  26       23       24 2
  27       23       25 2
  28       23       26 1
  29       26       27 1
  30       27       28 2
  31       28       29 1
  32       29       30 1
  33       30       31 ar
  34       31       32 ar
  35       32       33 ar
  36       33       34 ar
  37       34       35 ar
  38       35       30 ar
  39       29       36 1
  40       36       26 2
  41        1       37 1
  42        1       38 1
  43        1       39 1
  44        4       40 1
  45        5       41 1
  46        6       42 1
  47        7       43 1
  48       13       44 1
  49       14       45 1
  50       15       46 1
  51       16       47 1
  52       17       48 1
  53       18       49 1
  54       27       50 1
  55       31       51 1
  56       32       52 1
  57       33       53 1
  58       34       54 1
  59       35       55 1
  60       36       56 1

@<TRIPOS>MOLECULE

  56   60
SMALL
USER_CHARGES
@<TRIPOS>ATOM
   1 C1          -1.8973     2.7959    -3.4931 C.3          1    LIG   0.0000
   2 O2          -1.2037     2.3082    -2.3540 O.3          1    LIG   0.0000
   3 C3          -1.7257     2.6618    -1.1600 C.ar         1    LIG   0.0000
   4 C4          -2.8683     3.4544    -1.1392 C.ar         1    LIG   0.0000
   5 C5          -3.4296     3.8342     0.0760 C.ar         1    LIG   0.0000
   6 C6          -2.8471     3.4218     1.2703 C.ar         1    LIG   0.0000
   7 C7          -1.7035     2.6307     1.2497 C.ar         1    LIG   0.0000
   8 C8          -1.1423     2.2501     0.0349 C.ar         1    LIG   0.0000
   9 C9           0.0502     1.4251     0.0140 C.2          1    LIG   0.0000
  10 N10          1.2906     1.8483     0.0086 N.2          1    LIG   0.0000
  11 N11          2.1113     0.8202    -0.0137 N.pl3        1    LIG   0.0000
  12 C12          3.5090     0.9029    -0.0286 C.ar         1    LIG   0.0000
  13 C13          4.1248     2.1502    -0.0198 C.ar         1    LIG   0.0000
  14 C14          5.5137     2.2230    -0.0354 C.ar         1    LIG   0.0000
  15 C15          6.2719     1.0563    -0.0592 C.ar         1    LIG   0.0000
  16 C16          5.6476    -0.1868    -0.0676 C.ar         1    LIG   0.0000
  17 C17          4.2588    -0.2685    -0.0527 C.ar         1    LIG   0.0000
  18 C18          1.4074    -0.3441    -0.0181 C.2          1    LIG   0.0000
  19 C19          0.0959     0.0164    -0.0018 C.2          1    LIG   0.0000
  20 C20         -1.0420    -0.8838     0.0003 C.2          1    LIG   0.0000
  21 O21         -0.8679    -2.0710    -0.0144 O.2          1    LIG   0.0000
  22 N22         -2.3152    -0.3784     0.0192 N.pl3        1    LIG  -1.0000
  23 S23         -3.6566    -1.5178     0.0209 S.o2         1    LIG   0.0000
  24 O24         -3.3401    -2.6306     0.8782 O.2          1    LIG   0.0000
  25 O25         -4.8434    -0.8614     0.5048 O.2          1    LIG   0.0000
  26 C26         -3.9316    -2.0936    -1.6005 C.2          1    LIG   0.0000
  27 C27         -4.7989    -1.4984    -2.5507 C.2          1    LIG   0.0000
  28 N28         -4.7027    -2.2351    -3.6394 N.2          1    LIG   0.0000
  29 N29         -3.8545    -3.2292    -3.4543 N.pl3        1    LIG   0.0000
  30 C30         -3.5110    -4.2090    -4.3938 C.ar         1    LIG   0.0000
  31 C31         -4.0877    -4.1814    -5.6593 C.ar         1    LIG   0.0000
  32 C32         -3.7413    -5.1591    -6.5860 C.ar         1    LIG   0.0000
  33 C33         -2.8267    -6.1504    -6.2433 C.ar         1    LIG   0.0000
  34 C34         -2.2547    -6.1701    -4.9755 C.ar         1    LIG   0.0000
  35 C35         -2.5962    -5.1963    -4.0424 C.ar         1    LIG   0.0000
  36 C36         -3.3508    -3.1776    -2.1897 C.2          1    LIG   0.0000
  37 H           -1.4366     2.4824    -4.3234 H            1    LIG   0.0000
  38 H           -2.8367     2.4532    -3.4834 H            1    LIG   0.0000
  39 H           -1.9070     3.7957    -3.4746 H            1    LIG   0.0000
  40 H           -3.2866     3.7513    -1.9977 H            1    LIG   0.0000
  41 H           -4.2515     4.4036     0.0910 H            1    LIG   0.0000
  42 H           -3.2509     3.6943     2.1436 H            1    LIG   0.0000
  43 H           -1.2845     2.3353     2.1083 H            1    LIG   0.0000
  44 H            3.5750     2.9853    -0.0025 H            1    LIG   0.0000
  45 H            5.9676     3.1140    -0.0296 H            1    LIG   0.0000
  46 H            7.2703     1.1118    -0.0704 H            1    LIG   0.0000
  47 H            6.1973    -1.0220    -0.0842 H            1    LIG   0.0000
  48 H            3.8047    -1.1594    -0.0594 H            1    LIG   0.0000
  49 H            1.7777    -1.2729    -0.0306 H            1    LIG   0.0000
  50 H           -5.3674    -0.6859    -2.4215 H            1    LIG   0.0000
  51 H           -4.7442    -3.4666    -5.9002 H            1    LIG   0.0000
  52 H           -4.1495    -5.1496    -7.4988 H            1    LIG   0.0000
  53 H           -2.5795    -6.8519    -6.9117 H            1    LIG   0.0000
  54 H           -1.5977    -6.8845    -4.7346 H            1    LIG   0.0000
  55 H           -2.1887    -5.2060    -3.1292 H            1    LIG   0.0000
  56 H           -2.6906    -3.8058    -1.7780 H            1    LIG   0.0000
@<TRIPOS>BOND
   1        1        2 1
   2        2        3 1
   3        3        4 ar
   4        4        5 ar
   5        5        6 ar
   6        6        7 ar
   7        7        8 ar
   8        8        3 ar
   9        8        9 1
  10        9       10 2
  11       10       11 1
  12       11       12 1
  13       12       13 ar
  14       13       14 ar
  15       14       15 ar
  16       15       16 ar
  17       16       17 ar
  18       17       12 ar
  19       11       18 1
  20       18       19 2
  21       19        9 1
  22       19       20 1
  23       20       21 2
  24       20       22 1
  25       22       23 1
  26       23       24 2
  27       23       25 2
  28       23       26 1
  29       26       27 1
  30       27       28 2
  31       28       29 1
  32       29       30 1
  33       30       31 ar
  34       31       32 ar
  35       32       33 ar
  36       33       34 ar
  37       34       35 ar
  38       35       30 ar
  39       29       36 1
  40       36       26 2
  41        1       37 1
  42        1       38 1
  43        1       39 1
  44        4       40 1
  45        5       41 1
  46        6       42 1
  47        7       43 1
  48       13       44 1
  49       14       45 1
  50       15       46 1
  51       16       47 1
  52       17       48 1
  53       18       49 1
  54       27       50 1
  55       31       51 1
  56       32       52 1
  57       33       53 1
  58       34       54 1
  59       35       55 1
  60       36       56 1

@<TRIPOS>MOLECULE

  56   60
SMALL
USER_CHARGES
@<TRIPOS>ATOM
   1 C1          -1.8351     2.7057     3.5884 C.3          1    LIG   0.0000
   2 O2          -1.1615     2.2476     2.4253 O.3          1    LIG   0.0000
   3 C3          -1.7047     2.6309     1.2501 C.ar         1    LIG   0.0000
   4 C4          -2.8494     3.4206     1.2695 C.ar         1    LIG   0.0000
   5 C5          -3.4314     3.8316     0.0744 C.ar         1    LIG   0.0000
   6 C6          -2.8688     3.4519    -1.1400 C.ar         1    LIG   0.0000
   7 C7          -1.7250     2.6608    -1.1597 C.ar         1    LIG   0.0000
   8 C8          -1.1423     2.2501     0.0349 C.ar         1    LIG   0.0000
   9 C9           0.0502     1.4251     0.0140 C.2          1    LIG   0.0000
  10 N10          1.2906     1.8483     0.0086 N.2          1    LIG   0.0000
  11 N11          2.1113     0.8202    -0.0137 N.pl3        1    LIG   0.0000
  12 C12          3.5090     0.9029    -0.0286 C.ar         1    LIG   0.0000
  13 C13          4.1248     2.1502    -0.0198 C.ar         1    LIG   0.0000
  14 C14          5.5137     2.2230    -0.0354 C.ar         1    LIG   0.0000
  15 C15          6.2719     1.0563    -0.0592 C.ar         1    LIG   0.0000
  16 C16          5.6476    -0.1868    -0.0676 C.ar         1    LIG   0.0000
  17 C17          4.2588    -0.2685    -0.0527 C.ar         1    LIG   0.0000
  18 C18          1.4074    -0.3441    -0.0181 C.2          1    LIG   0.0000
  19 C19          0.0959     0.0164    -0.0018 C.2          1    LIG   0.0000
  20 C20         -1.0420    -0.8838     0.0003 C.2          1    LIG   0.0000
  21 O21         -0.8679    -2.0710    -0.0144 O.2          1    LIG   0.0000
  22 N22         -2.3152    -0.3784     0.0192 N.pl3        1    LIG  -1.0000
  23 S23         -3.6566    -1.5178     0.0209 S.o2         1    LIG   0.0000
  24 O24         -4.8531    -0.8513    -0.4238 O.2          1    LIG   0.0000
  25 O25         -3.3584    -2.6116    -0.8669 O.2          1    LIG   0.0000
  26 C26         -3.8976    -2.1288     1.6347 C.2          1    LIG   0.0000
  27 C27         -3.2786    -3.2811     2.1809 C.2          1    LIG   0.0000
  28 N28         -3.7228    -3.3782     3.4180 N.2          1    LIG   0.0000
  29 N29         -4.5566    -2.3922     3.6910 N.pl3        1    LIG   0.0000
  30 C30         -5.2204    -2.1829     4.9060 C.ar         1    LIG   0.0000
  31 C31         -5.0199    -3.0669     5.9611 C.ar         1    LIG   0.0000
  32 C32         -5.6840    -2.8517     7.1641 C.ar         1    LIG   0.0000
  33 C33         -6.5377    -1.7616     7.3029 C.ar         1    LIG   0.0000
  34 C34         -6.7321    -0.8825     6.2426 C.ar         1    LIG   0.0000
  35 C35         -6.0723    -1.0908     5.0356 C.ar         1    LIG   0.0000
  36 C36         -4.6948    -1.5883     2.6001 C.2          1    LIG   0.0000
  37 H           -1.3597     2.3717     4.4023 H            1    LIG   0.0000
  38 H           -1.8458     3.7056     3.5954 H            1    LIG   0.0000
  39 H           -2.7743     2.3624     3.5866 H            1    LIG   0.0000
  40 H           -3.2541     3.6930     2.1424 H            1    LIG   0.0000
  41 H           -4.2541     4.3999     0.0883 H            1    LIG   0.0000
  42 H           -3.2867     3.7478    -1.9989 H            1    LIG   0.0000
  43 H           -1.3215     2.3871    -2.0327 H            1    LIG   0.0000
  44 H            3.5750     2.9853    -0.0025 H            1    LIG   0.0000
  45 H            5.9676     3.1140    -0.0296 H            1    LIG   0.0000
  46 H            7.2703     1.1118    -0.0704 H            1    LIG   0.0000
  47 H            6.1973    -1.0220    -0.0842 H            1    LIG   0.0000
  48 H            3.8047    -1.1594    -0.0594 H            1    LIG   0.0000
  49 H            1.7777    -1.2729    -0.0306 H            1    LIG   0.0000
  50 H           -2.6364    -3.8948     1.7216 H            1    LIG   0.0000
  51 H           -4.4050    -3.8485     5.8558 H            1    LIG   0.0000
  52 H           -5.5479    -3.4807     7.9296 H            1    LIG   0.0000
  53 H           -7.0137    -1.6095     8.1691 H            1    LIG   0.0000
  54 H           -7.3464    -0.1005     6.3479 H            1    LIG   0.0000
  55 H           -6.2088    -0.4624     4.2697 H            1    LIG   0.0000
  56 H           -5.2641    -0.7698     2.5229 H            1    LIG   0.0000
@<TRIPOS>BOND
   1        1        2 1
   2        2        3 1
   3        3        4 ar
   4        4        5 ar
   5        5        6 ar
   6        6        7 ar
   7        7        8 ar
   8        8        3 ar
   9        8        9 1
  10        9       10 2
  11       10       11 1
  12       11       12 1
  13       12       13 ar
  14       13       14 ar
  15       14       15 ar
  16       15       16 ar
  17       16       17 ar
  18       17       12 ar
  19       11       18 1
  20       18       19 2
  21       19        9 1
  22       19       20 1
  23       20       21 2
  24       20       22 1
  25       22       23 1
  26       23       24 2
  27       23       25 2
  28       23       26 1
  29       26       27 1
  30       27       28 2
  31       28       29 1
  32       29       30 1
  33       30       31 ar
  34       31       32 ar
  35       32       33 ar
  36       33       34 ar
  37       34       35 ar
  38       35       30 ar
  39       29       36 1
  40       36       26 2
  41        1       37 1
  42        1       38 1
  43        1       39 1
  44        4       40 1
  45        5       41 1
  46        6       42 1
  47        7       43 1
  48       13       44 1
  49       14       45 1
  50       15       46 1
  51       16       47 1
  52       17       48 1
  53       18       49 1
  54       27       50 1
  55       31       51 1
  56       32       52 1
  57       33       53 1
  58       34       54 1
  59       35       55 1
  60       36       56 1

@<TRIPOS>MOLECULE

  56   60
SMALL
USER_CHARGES
@<TRIPOS>ATOM
   1 C1          -1.8973     2.7959    -3.4931 C.3          1    LIG   0.0000
   2 O2          -1.2037     2.3082    -2.3540 O.3          1    LIG   0.0000
   3 C3          -1.7257     2.6618    -1.1600 C.ar         1    LIG   0.0000
   4 C4          -2.8683     3.4544    -1.1392 C.ar         1    LIG   0.0000
   5 C5          -3.4296     3.8342     0.0760 C.ar         1    LIG   0.0000
   6 C6          -2.8471     3.4218     1.2703 C.ar         1    LIG   0.0000
   7 C7          -1.7035     2.6307     1.2497 C.ar         1    LIG   0.0000
   8 C8          -1.1423     2.2501     0.0349 C.ar         1    LIG   0.0000
   9 C9           0.0502     1.4251     0.0140 C.2          1    LIG   0.0000
  10 N10          1.2906     1.8483     0.0086 N.2          1    LIG   0.0000
  11 N11          2.1113     0.8202    -0.0137 N.pl3        1    LIG   0.0000
  12 C12          3.5090     0.9029    -0.0286 C.ar         1    LIG   0.0000
  13 C13          4.1248     2.1502    -0.0198 C.ar         1    LIG   0.0000
  14 C14          5.5137     2.2230    -0.0354 C.ar         1    LIG   0.0000
  15 C15          6.2719     1.0563    -0.0592 C.ar         1    LIG   0.0000
  16 C16          5.6476    -0.1868    -0.0676 C.ar         1    LIG   0.0000
  17 C17          4.2588    -0.2685    -0.0527 C.ar         1    LIG   0.0000
  18 C18          1.4074    -0.3441    -0.0181 C.2          1    LIG   0.0000
  19 C19          0.0959     0.0164    -0.0018 C.2          1    LIG   0.0000
  20 C20         -1.0420    -0.8838     0.0003 C.2          1    LIG   0.0000
  21 O21         -1.8443    -0.8388    -0.8909 O.2          1    LIG   0.0000
  22 N22         -1.2005    -1.7852     1.0198 N.pl3        1    LIG  -1.0000
  23 S23         -0.4694    -3.3757     0.8376 S.o2         1    LIG   0.0000
  24 O24          0.8280    -3.2406     0.2275 O.2          1    LIG   0.0000
  25 O25         -0.3294    -3.9908     2.1320 O.2          1    LIG   0.0000
  26 C26         -1.4848    -4.3696    -0.1710 C.2          1    LIG   0.0000
  27 C27         -1.3976    -4.4718    -1.5821 C.2          1    LIG   0.0000
  28 N28         -2.3312    -5.3302    -1.9409 N.2          1    LIG   0.0000
  29 N29         -2.9868    -5.7721    -0.8841 N.pl3        1    LIG   0.0000
  30 C30         -4.0443    -6.6899    -0.8911 C.ar         1    LIG   0.0000
  31 C31         -4.4881    -7.2195    -2.0984 C.ar         1    LIG   0.0000
  32 C32         -5.5396    -8.1300    -2.0960 C.ar         1    LIG   0.0000
  33 C33         -6.1355    -8.5023    -0.8949 C.ar         1    LIG   0.0000
  34 C34         -5.6850    -7.9679     0.3078 C.ar         1    LIG   0.0000
  35 C35         -4.6343    -7.0561     0.3143 C.ar         1    LIG   0.0000
  36 C36         -2.4888    -5.1937     0.2441 C.2          1    LIG   0.0000
  37 H           -1.4366     2.4824    -4.3234 H            1    LIG   0.0000
  38 H           -2.8367     2.4532    -3.4834 H            1    LIG   0.0000
  39 H           -1.9070     3.7957    -3.4746 H            1    LIG   0.0000
  40 H           -3.2866     3.7513    -1.9977 H            1    LIG   0.0000
  41 H           -4.2515     4.4036     0.0910 H            1    LIG   0.0000
  42 H           -3.2509     3.6943     2.1436 H            1    LIG   0.0000
  43 H           -1.2845     2.3353     2.1083 H            1    LIG   0.0000
  44 H            3.5750     2.9853    -0.0025 H            1    LIG   0.0000
  45 H            5.9676     3.1140    -0.0296 H            1    LIG   0.0000
  46 H            7.2703     1.1118    -0.0704 H            1    LIG   0.0000
  47 H            6.1973    -1.0220    -0.0842 H            1    LIG   0.0000
  48 H            3.8047    -1.1594    -0.0594 H            1    LIG   0.0000
  49 H            1.7777    -1.2729    -0.0306 H            1    LIG   0.0000
  50 H           -0.7585    -3.9912    -2.1826 H            1    LIG   0.0000
  51 H           -4.0560    -6.9485    -2.9586 H            1    LIG   0.0000
  52 H           -5.8674    -8.5172    -2.9578 H            1    LIG   0.0000
  53 H           -6.8913    -9.1572    -0.8964 H            1    LIG   0.0000
  54 H           -6.1166    -8.2393     1.1681 H            1    LIG   0.0000
  55 H           -4.3068    -6.6682     1.1758 H            1    LIG   0.0000
  56 H           -2.7964    -5.3427     1.1839 H            1    LIG   0.0000
@<TRIPOS>BOND
   1        1        2 1
   2        2        3 1
   3        3        4 ar
   4        4        5 ar
   5        5        6 ar
   6        6        7 ar
   7        7        8 ar
   8        8        3 ar
   9        8        9 1
  10        9       10 2
  11       10       11 1
  12       11       12 1
  13       12       13 ar
  14       13       14 ar
  15       14       15 ar
  16       15       16 ar
  17       16       17 ar
  18       17       12 ar
  19       11       18 1
  20       18       19 2
  21       19        9 1
  22       19       20 1
  23       20       21 2
  24       20       22 1
  25       22       23 1
  26       23       24 2
  27       23       25 2
  28       23       26 1
  29       26       27 1
  30       27       28 2
  31       28       29 1
  32       29       30 1
  33       30       31 ar
  34       31       32 ar
  35       32       33 ar
  36       33       34 ar
  37       34       35 ar
  38       35       30 ar
  39       29       36 1
  40       36       26 2
  41        1       37 1
  42        1       38 1
  43        1       39 1
  44        4       40 1
  45        5       41 1
  46        6       42 1
  47        7       43 1
  48       13       44 1
  49       14       45 1
  50       15       46 1
  51       16       47 1
  52       17       48 1
  53       18       49 1
  54       27       50 1
  55       31       51 1
  56       32       52 1
  57       33       53 1
  58       34       54 1
  59       35       55 1
  60       36       56 1

@<TRIPOS>MOLECULE

  56   60
SMALL
USER_CHARGES
@<TRIPOS>ATOM
   1 C1          -1.8973     2.7959    -3.4931 C.3          1    LIG   0.0000
   2 O2          -1.2037     2.3082    -2.3540 O.3          1    LIG   0.0000
   3 C3          -1.7257     2.6618    -1.1600 C.ar         1    LIG   0.0000
   4 C4          -2.8683     3.4544    -1.1392 C.ar         1    LIG   0.0000
   5 C5          -3.4296     3.8342     0.0760 C.ar         1    LIG   0.0000
   6 C6          -2.8471     3.4218     1.2703 C.ar         1    LIG   0.0000
   7 C7          -1.7035     2.6307     1.2497 C.ar         1    LIG   0.0000
   8 C8          -1.1423     2.2501     0.0349 C.ar         1    LIG   0.0000
   9 C9           0.0502     1.4251     0.0140 C.2          1    LIG   0.0000
  10 N10          1.2906     1.8483     0.0086 N.2          1    LIG   0.0000
  11 N11          2.1113     0.8202    -0.0137 N.pl3        1    LIG   0.0000
  12 C12          3.5090     0.9029    -0.0286 C.ar         1    LIG   0.0000
  13 C13          4.1248     2.1502    -0.0198 C.ar         1    LIG   0.0000
  14 C14          5.5137     2.2230    -0.0354 C.ar         1    LIG   0.0000
  15 C15          6.2719     1.0563    -0.0592 C.ar         1    LIG   0.0000
  16 C16          5.6476    -0.1868    -0.0676 C.ar         1    LIG   0.0000
  17 C17          4.2588    -0.2685    -0.0527 C.ar         1    LIG   0.0000
  18 C18          1.4074    -0.3441    -0.0181 C.2          1    LIG   0.0000
  19 C19          0.0959     0.0164    -0.0018 C.2          1    LIG   0.0000
  20 C20         -1.0420    -0.8838     0.0003 C.2          1    LIG   0.0000
  21 O21         -1.8443    -0.8388    -0.8909 O.2          1    LIG   0.0000
  22 N22         -1.2005    -1.7852     1.0198 N.pl3        1    LIG  -1.0000
  23 S23         -2.1227    -1.2819     2.4318 S.o2         1    LIG   0.0000
  24 O24         -1.7964    -2.1329     3.5466 O.2          1    LIG   0.0000
  25 O25         -1.7958     0.0822     2.7575 O.2          1    LIG   0.0000
  26 C26         -3.8262    -1.4043     2.0867 C.2          1    LIG   0.0000
  27 C27         -4.6325    -2.5485     2.3105 C.2          1    LIG   0.0000
  28 N28         -5.8485    -2.2146     1.9270 N.2          1    LIG   0.0000
  29 N29         -5.8723    -0.9697     1.4896 N.pl3        1    LIG   0.0000
  30 C30         -6.9925    -0.2859     1.0014 C.ar         1    LIG   0.0000
  31 C31         -8.2239    -0.9308     0.9495 C.ar         1    LIG   0.0000
  32 C32         -9.3311    -0.2442     0.4625 C.ar         1    LIG   0.0000
  33 C33         -9.2004     1.0734     0.0341 C.ar         1    LIG   0.0000
  34 C34         -7.9651     1.7106     0.0899 C.ar         1    LIG   0.0000
  35 C35         -6.8524     1.0308     0.5750 C.ar         1    LIG   0.0000
  36 C36         -4.6255    -0.4271     1.5712 C.2          1    LIG   0.0000
  37 H           -1.4366     2.4824    -4.3234 H            1    LIG   0.0000
  38 H           -2.8367     2.4532    -3.4834 H            1    LIG   0.0000
  39 H           -1.9070     3.7957    -3.4746 H            1    LIG   0.0000
  40 H           -3.2866     3.7513    -1.9977 H            1    LIG   0.0000
  41 H           -4.2515     4.4036     0.0910 H            1    LIG   0.0000
  42 H           -3.2509     3.6943     2.1436 H            1    LIG   0.0000
  43 H           -1.2845     2.3353     2.1083 H            1    LIG   0.0000
  44 H            3.5750     2.9853    -0.0025 H            1    LIG   0.0000
  45 H            5.9676     3.1140    -0.0296 H            1    LIG   0.0000
  46 H            7.2703     1.1118    -0.0704 H            1    LIG   0.0000
  47 H            6.1973    -1.0220    -0.0842 H            1    LIG   0.0000
  48 H            3.8047    -1.1594    -0.0594 H            1    LIG   0.0000
  49 H            1.7777    -1.2729    -0.0306 H            1    LIG   0.0000
  50 H           -4.3388    -3.4288     2.6830 H            1    LIG   0.0000
  51 H           -8.3121    -1.8776     1.2589 H            1    LIG   0.0000
  52 H          -10.2215    -0.6975     0.4202 H            1    LIG   0.0000
  53 H           -9.9982     1.5644    -0.3155 H            1    LIG   0.0000
  54 H           -7.8768     2.6576    -0.2189 H            1    LIG   0.0000
  55 H           -5.9618     1.4836     0.6167 H            1    LIG   0.0000
  56 H           -4.3524     0.4980     1.3072 H            1    LIG   0.0000
@<TRIPOS>BOND
   1        1        2 1
   2        2        3 1
   3        3        4 ar
   4        4        5 ar
   5        5        6 ar
   6        6        7 ar
   7        7        8 ar
   8        8        3 ar
   9        8        9 1
  10        9       10 2
  11       10       11 1
  12       11       12 1
  13       12       13 ar
  14       13       14 ar
  15       14       15 ar
  16       15       16 ar
  17       16       17 ar
  18       17       12 ar
  19       11       18 1
  20       18       19 2
  21       19        9 1
  22       19       20 1
  23       20       21 2
  24       20       22 1
  25       22       23 1
  26       23       24 2
  27       23       25 2
  28       23       26 1
  29       26       27 1
  30       27       28 2
  31       28       29 1
  32       29       30 1
  33       30       31 ar
  34       31       32 ar
  35       32       33 ar
  36       33       34 ar
  37       34       35 ar
  38       35       30 ar
  39       29       36 1
  40       36       26 2
  41        1       37 1
  42        1       38 1
  43        1       39 1
  44        4       40 1
  45        5       41 1
  46        6       42 1
  47        7       43 1
  48       13       44 1
  49       14       45 1
  50       15       46 1
  51       16       47 1
  52       17       48 1
  53       18       49 1
  54       27       50 1
  55       31       51 1
  56       32       52 1
  57       33       53 1
  58       34       54 1
  59       35       55 1
  60       36       56 1

@<TRIPOS>MOLECULE

  56   60
SMALL
USER_CHARGES
@<TRIPOS>ATOM
   1 C1          -1.8973     2.7959    -3.4931 C.3          1    LIG   0.0000
   2 O2          -1.2037     2.3082    -2.3540 O.3          1    LIG   0.0000
   3 C3          -1.7257     2.6618    -1.1600 C.ar         1    LIG   0.0000
   4 C4          -2.8683     3.4544    -1.1392 C.ar         1    LIG   0.0000
   5 C5          -3.4296     3.8342     0.0760 C.ar         1    LIG   0.0000
   6 C6          -2.8471     3.4218     1.2703 C.ar         1    LIG   0.0000
   7 C7          -1.7035     2.6307     1.2497 C.ar         1    LIG   0.0000
   8 C8          -1.1423     2.2501     0.0349 C.ar         1    LIG   0.0000
   9 C9           0.0502     1.4251     0.0140 C.2          1    LIG   0.0000
  10 N10          1.2906     1.8483     0.0086 N.2          1    LIG   0.0000
  11 N11          2.1113     0.8202    -0.0137 N.pl3        1    LIG   0.0000
  12 C12          3.5090     0.9029    -0.0286 C.ar         1    LIG   0.0000
  13 C13          4.1248     2.1502    -0.0198 C.ar         1    LIG   0.0000
  14 C14          5.5137     2.2230    -0.0354 C.ar         1    LIG   0.0000
  15 C15          6.2719     1.0563    -0.0592 C.ar         1    LIG   0.0000
  16 C16          5.6476    -0.1868    -0.0676 C.ar         1    LIG   0.0000
  17 C17          4.2588    -0.2685    -0.0527 C.ar         1    LIG   0.0000
  18 C18          1.4074    -0.3441    -0.0181 C.2          1    LIG   0.0000
  19 C19          0.0959     0.0164    -0.0018 C.2          1    LIG   0.0000
  20 C20         -1.0420    -0.8838     0.0003 C.2          1    LIG   0.0000
  21 O21         -2.0654    -0.5559     0.5343 O.2          1    LIG   0.0000
  22 N22         -0.9481    -2.1081    -0.6072 N.pl3        1    LIG  -1.0000
  23 S23         -2.3602    -3.1580    -0.5731 S.o2         1    LIG   0.0000
  24 O24         -3.5484    -2.3712    -0.7799 O.2          1    LIG   0.0000
  25 O25         -2.2502    -4.1445    -1.6164 O.2          1    LIG   0.0000
  26 C26         -2.4536    -3.9558     0.9731 C.2          1    LIG   0.0000
  27 C27         -3.1344    -3.4636     2.1149 C.2          1    LIG   0.0000
  28 N28         -2.9664    -4.3715     3.0554 N.2          1    LIG   0.0000
  29 N29         -2.2481    -5.3819     2.6027 N.pl3        1    LIG   0.0000
  30 C30         -1.8720    -6.5195     3.3275 C.ar         1    LIG   0.0000
  31 C31         -2.2649    -6.6506     4.6554 C.ar         1    LIG   0.0000
  32 C32         -1.8863    -7.7835     5.3679 C.ar         1    LIG   0.0000
  33 C33         -1.1231    -8.7707     4.7519 C.ar         1    LIG   0.0000
  34 C34         -0.7348    -8.6314     3.4234 C.ar         1    LIG   0.0000
  35 C35         -1.1088    -7.5010     2.7037 C.ar         1    LIG   0.0000
  36 C36         -1.9053    -5.1599     1.3033 C.2          1    LIG   0.0000
  37 H           -1.4366     2.4824    -4.3234 H            1    LIG   0.0000
  38 H           -2.8367     2.4532    -3.4834 H            1    LIG   0.0000
  39 H           -1.9070     3.7957    -3.4746 H            1    LIG   0.0000
  40 H           -3.2866     3.7513    -1.9977 H            1    LIG   0.0000
  41 H           -4.2515     4.4036     0.0910 H            1    LIG   0.0000
  42 H           -3.2509     3.6943     2.1436 H            1    LIG   0.0000
  43 H           -1.2845     2.3353     2.1083 H            1    LIG   0.0000
  44 H            3.5750     2.9853    -0.0025 H            1    LIG   0.0000
  45 H            5.9676     3.1140    -0.0296 H            1    LIG   0.0000
  46 H            7.2703     1.1118    -0.0704 H            1    LIG   0.0000
  47 H            6.1973    -1.0220    -0.0842 H            1    LIG   0.0000
  48 H            3.8047    -1.1594    -0.0594 H            1    LIG   0.0000
  49 H            1.7777    -1.2729    -0.0306 H            1    LIG   0.0000
  50 H           -3.6389    -2.6035     2.1911 H            1    LIG   0.0000
  51 H           -2.8136    -5.9382     5.0929 H            1    LIG   0.0000
  52 H           -2.1626    -7.8887     6.3232 H            1    LIG   0.0000
  53 H           -0.8524    -9.5842     5.2667 H            1    LIG   0.0000
  54 H           -0.1868    -9.3441     2.9855 H            1    LIG   0.0000
  55 H           -0.8319    -7.3952     1.7486 H            1    LIG   0.0000
  56 H           -1.3628    -5.7572     0.7126 H            1    LIG   0.0000
@<TRIPOS>BOND
   1        1        2 1
   2        2        3 1
   3        3        4 ar
   4        4        5 ar
   5        5        6 ar
   6        6        7 ar
   7        7        8 ar
   8        8        3 ar
   9        8        9 1
  10        9       10 2
  11       10       11 1
  12       11       12 1
  13       12       13 ar
  14       13       14 ar
  15       14       15 ar
  16       15       16 ar
  17       16       17 ar
  18       17       12 ar
  19       11       18 1
  20       18       19 2
  21       19        9 1
  22       19       20 1
  23       20       21 2
  24       20       22 1
  25       22       23 1
  26       23       24 2
  27       23       25 2
  28       23       26 1
  29       26       27 1
  30       27       28 2
  31       28       29 1
  32       29       30 1
  33       30       31 ar
  34       31       32 ar
  35       32       33 ar
  36       33       34 ar
  37       34       35 ar
  38       35       30 ar
  39       29       36 1
  40       36       26 2
  41        1       37 1
  42        1       38 1
  43        1       39 1
  44        4       40 1
  45        5       41 1
  46        6       42 1
  47        7       43 1
  48       13       44 1
  49       14       45 1
  50       15       46 1
  51       16       47 1
  52       17       48 1
  53       18       49 1
  54       27       50 1
  55       31       51 1
  56       32       52 1
  57       33       53 1
  58       34       54 1
  59       35       55 1
  60       36       56 1

@<TRIPOS>MOLECULE

  56   60
SMALL
USER_CHARGES
@<TRIPOS>ATOM
   1 C1          -1.8351     2.7057     3.5884 C.3          1    LIG   0.0000
   2 O2          -1.1615     2.2476     2.4253 O.3          1    LIG   0.0000
   3 C3          -1.7047     2.6309     1.2501 C.ar         1    LIG   0.0000
   4 C4          -2.8494     3.4206     1.2695 C.ar         1    LIG   0.0000
   5 C5          -3.4314     3.8316     0.0744 C.ar         1    LIG   0.0000
   6 C6          -2.8688     3.4519    -1.1400 C.ar         1    LIG   0.0000
   7 C7          -1.7250     2.6608    -1.1597 C.ar         1    LIG   0.0000
   8 C8          -1.1423     2.2501     0.0349 C.ar         1    LIG   0.0000
   9 C9           0.0502     1.4251     0.0140 C.2          1    LIG   0.0000
  10 N10          1.2906     1.8483     0.0086 N.2          1    LIG   0.0000
  11 N11          2.1113     0.8202    -0.0137 N.pl3        1    LIG   0.0000
  12 C12          3.5090     0.9029    -0.0286 C.ar         1    LIG   0.0000
  13 C13          4.1248     2.1502    -0.0198 C.ar         1    LIG   0.0000
  14 C14          5.5137     2.2230    -0.0354 C.ar         1    LIG   0.0000
  15 C15          6.2719     1.0563    -0.0592 C.ar         1    LIG   0.0000
  16 C16          5.6476    -0.1868    -0.0676 C.ar         1    LIG   0.0000
  17 C17          4.2588    -0.2685    -0.0527 C.ar         1    LIG   0.0000
  18 C18          1.4074    -0.3441    -0.0181 C.2          1    LIG   0.0000
  19 C19          0.0959     0.0164    -0.0018 C.2          1    LIG   0.0000
  20 C20         -1.0420    -0.8838     0.0003 C.2          1    LIG   0.0000
  21 O21         -2.0654    -0.5559     0.5343 O.2          1    LIG   0.0000
  22 N22         -0.9481    -2.1081    -0.6072 N.pl3        1    LIG  -1.0000
  23 S23         -1.3875    -2.2226    -2.3077 S.o2         1    LIG   0.0000
  24 O24         -0.9013    -1.0622    -3.0082 O.2          1    LIG   0.0000
  25 O25         -0.8000    -3.4078    -2.8765 O.2          1    LIG   0.0000
  26 C26         -3.1217    -2.3058    -2.4551 C.2          1    LIG   0.0000
  27 C27         -3.9918    -1.1948    -2.5894 C.2          1    LIG   0.0000
  28 N28         -5.2071    -1.6964    -2.6814 N.2          1    LIG   0.0000
  29 N29         -5.1717    -3.0143    -2.6201 N.pl3        1    LIG   0.0000
  30 C30         -6.2744    -3.8751    -2.6818 C.ar         1    LIG   0.0000
  31 C31         -7.5535    -3.3462    -2.8207 C.ar         1    LIG   0.0000
  32 C32         -8.6431    -4.2086    -2.8804 C.ar         1    LIG   0.0000
  33 C33         -8.4476    -5.5841    -2.8017 C.ar         1    LIG   0.0000
  34 C34         -7.1649    -6.1043    -2.6631 C.ar         1    LIG   0.0000
  35 C35         -6.0696    -5.2487    -2.6019 C.ar         1    LIG   0.0000
  36 C36         -3.8844    -3.4360    -2.4765 C.2          1    LIG   0.0000
  37 H           -1.3597     2.3717     4.4023 H            1    LIG   0.0000
  38 H           -1.8458     3.7056     3.5954 H            1    LIG   0.0000
  39 H           -2.7743     2.3624     3.5866 H            1    LIG   0.0000
  40 H           -3.2541     3.6930     2.1424 H            1    LIG   0.0000
  41 H           -4.2541     4.3999     0.0883 H            1    LIG   0.0000
  42 H           -3.2867     3.7478    -1.9989 H            1    LIG   0.0000
  43 H           -1.3215     2.3871    -2.0327 H            1    LIG   0.0000
  44 H            3.5750     2.9853    -0.0025 H            1    LIG   0.0000
  45 H            5.9676     3.1140    -0.0296 H            1    LIG   0.0000
  46 H            7.2703     1.1118    -0.0704 H            1    LIG   0.0000
  47 H            6.1973    -1.0220    -0.0842 H            1    LIG   0.0000
  48 H            3.8047    -1.1594    -0.0594 H            1    LIG   0.0000
  49 H            1.7777    -1.2729    -0.0306 H            1    LIG   0.0000
  50 H           -3.7359    -0.2283    -2.6101 H            1    LIG   0.0000
  51 H           -7.6881    -2.3569    -2.8771 H            1    LIG   0.0000
  52 H           -9.5674    -3.8400    -2.9800 H            1    LIG   0.0000
  53 H           -9.2330    -6.2017    -2.8449 H            1    LIG   0.0000
  54 H           -7.0301    -7.0936    -2.6074 H            1    LIG   0.0000
  55 H           -5.1453    -5.6170    -2.5016 H            1    LIG   0.0000
  56 H           -3.5644    -4.3804    -2.4021 H            1    LIG   0.0000
@<TRIPOS>BOND
   1        1        2 1
   2        2        3 1
   3        3        4 ar
   4        4        5 ar
   5        5        6 ar
   6        6        7 ar
   7        7        8 ar
   8        8        3 ar
   9        8        9 1
  10        9       10 2
  11       10       11 1
  12       11       12 1
  13       12       13 ar
  14       13       14 ar
  15       14       15 ar
  16       15       16 ar
  17       16       17 ar
  18       17       12 ar
  19       11       18 1
  20       18       19 2
  21       19        9 1
  22       19       20 1
  23       20       21 2
  24       20       22 1
  25       22       23 1
  26       23       24 2
  27       23       25 2
  28       23       26 1
  29       26       27 1
  30       27       28 2
  31       28       29 1
  32       29       30 1
  33       30       31 ar
  34       31       32 ar
  35       32       33 ar
  36       33       34 ar
  37       34       35 ar
  38       35       30 ar
  39       29       36 1
  40       36       26 2
  41        1       37 1
  42        1       38 1
  43        1       39 1
  44        4       40 1
  45        5       41 1
  46        6       42 1
  47        7       43 1
  48       13       44 1
  49       14       45 1
  50       15       46 1
  51       16       47 1
  52       17       48 1
  53       18       49 1
  54       27       50 1
  55       31       51 1
  56       32       52 1
  57       33       53 1
  58       34       54 1
  59       35       55 1
  60       36       56 1

@<TRIPOS>MOLECULE

  56   60
SMALL
USER_CHARGES
@<TRIPOS>ATOM
   1 C1          -1.8351     2.7057     3.5884 C.3          1    LIG   0.0000
   2 O2          -1.1615     2.2476     2.4253 O.3          1    LIG   0.0000
   3 C3          -1.7047     2.6309     1.2501 C.ar         1    LIG   0.0000
   4 C4          -2.8494     3.4206     1.2695 C.ar         1    LIG   0.0000
   5 C5          -3.4314     3.8316     0.0744 C.ar         1    LIG   0.0000
   6 C6          -2.8688     3.4519    -1.1400 C.ar         1    LIG   0.0000
   7 C7          -1.7250     2.6608    -1.1597 C.ar         1    LIG   0.0000
   8 C8          -1.1423     2.2501     0.0349 C.ar         1    LIG   0.0000
   9 C9           0.0502     1.4251     0.0140 C.2          1    LIG   0.0000
  10 N10          1.2906     1.8483     0.0086 N.2          1    LIG   0.0000
  11 N11          2.1113     0.8202    -0.0137 N.pl3        1    LIG   0.0000
  12 C12          3.5090     0.9029    -0.0286 C.ar         1    LIG   0.0000
  13 C13          4.1248     2.1502    -0.0198 C.ar         1    LIG   0.0000
  14 C14          5.5137     2.2230    -0.0354 C.ar         1    LIG   0.0000
  15 C15          6.2719     1.0563    -0.0592 C.ar         1    LIG   0.0000
  16 C16          5.6476    -0.1868    -0.0676 C.ar         1    LIG   0.0000
  17 C17          4.2588    -0.2685    -0.0527 C.ar         1    LIG   0.0000
  18 C18          1.4074    -0.3441    -0.0181 C.2          1    LIG   0.0000
  19 C19          0.0959     0.0164    -0.0018 C.2          1    LIG   0.0000
  20 C20         -1.0420    -0.8838     0.0003 C.2          1    LIG   0.0000
  21 O21         -2.0654    -0.5559     0.5343 O.2          1    LIG   0.0000
  22 N22         -0.9481    -2.1081    -0.6072 N.pl3        1    LIG  -1.0000
  23 S23         -1.3875    -2.2226    -2.3077 S.o2         1    LIG   0.0000
  24 O24         -1.6778    -3.5940    -2.6371 O.2          1    LIG   0.0000
  25 O25         -2.5510    -1.4121    -2.5583 O.2          1    LIG   0.0000
  26 C26         -0.0634    -1.6572    -3.2891 C.2          1    LIG   0.0000
  27 C27          0.9913    -2.4598    -3.7920 C.2          1    LIG   0.0000
  28 N28          1.7638    -1.6483    -4.4861 N.2          1    LIG   0.0000
  29 N29          1.2851    -0.4186    -4.4634 N.pl3        1    LIG   0.0000
  30 C30          1.8489     0.7001    -5.0891 C.ar         1    LIG   0.0000
  31 C31          3.0257     0.5610    -5.8177 C.ar         1    LIG   0.0000
  32 C32          3.5791     1.6777    -6.4353 C.ar         1    LIG   0.0000
  33 C33          2.9563     2.9169    -6.3210 C.ar         1    LIG   0.0000
  34 C34          1.7795     3.0466    -5.5906 C.ar         1    LIG   0.0000
  35 C35          1.2197     1.9349    -4.9692 C.ar         1    LIG   0.0000
  36 C36          0.1425    -0.3809    -3.7228 C.2          1    LIG   0.0000
  37 H           -1.3597     2.3717     4.4023 H            1    LIG   0.0000
  38 H           -1.8458     3.7056     3.5954 H            1    LIG   0.0000
  39 H           -2.7743     2.3624     3.5866 H            1    LIG   0.0000
  40 H           -3.2541     3.6930     2.1424 H            1    LIG   0.0000
  41 H           -4.2541     4.3999     0.0883 H            1    LIG   0.0000
  42 H           -3.2867     3.7478    -1.9989 H            1    LIG   0.0000
  43 H           -1.3215     2.3871    -2.0327 H            1    LIG   0.0000
  44 H            3.5750     2.9853    -0.0025 H            1    LIG   0.0000
  45 H            5.9676     3.1140    -0.0296 H            1    LIG   0.0000
  46 H            7.2703     1.1118    -0.0704 H            1    LIG   0.0000
  47 H            6.1973    -1.0220    -0.0842 H            1    LIG   0.0000
  48 H            3.8047    -1.1594    -0.0594 H            1    LIG   0.0000
  49 H            1.7777    -1.2729    -0.0306 H            1    LIG   0.0000
  50 H            1.1223    -3.4408    -3.6493 H            1    LIG   0.0000
  51 H            3.4688    -0.3319    -5.8967 H            1    LIG   0.0000
  52 H            4.4249     1.5900    -6.9615 H            1    LIG   0.0000
  53 H            3.3565     3.7179    -6.7662 H            1    LIG   0.0000
  54 H            1.3359     3.9394    -5.5121 H            1    LIG   0.0000
  55 H            0.3743     2.0224    -4.4422 H            1    LIG   0.0000
  56 H           -0.4282     0.4186    -3.5356 H            1    LIG   0.0000
@<TRIPOS>BOND
   1        1        2 1
   2        2        3 1
   3        3        4 ar
   4        4        5 ar
   5        5        6 ar
   6        6        7 ar
   7        7        8 ar
   8        8        3 ar
   9        8        9 1
  10        9       10 2
  11       10       11 1
  12       11       12 1
  13       12       13 ar
  14       13       14 ar
  15       14       15 ar
  16       15       16 ar
  17       16       17 ar
  18       17       12 ar
  19       11       18 1
  20       18       19 2
  21       19        9 1
  22       19       20 1
  23       20       21 2
  24       20       22 1
  25       22       23 1
  26       23       24 2
  27       23       25 2
  28       23       26 1
  29       26       27 1
  30       27       28 2
  31       28       29 1
  32       29       30 1
  33       30       31 ar
  34       31       32 ar
  35       32       33 ar
  36       33       34 ar
  37       34       35 ar
  38       35       30 ar
  39       29       36 1
  40       36       26 2
  41        1       37 1
  42        1       38 1
  43        1       39 1
  44        4       40 1
  45        5       41 1
  46        6       42 1
  47        7       43 1
  48       13       44 1
  49       14       45 1
  50       15       46 1
  51       16       47 1
  52       17       48 1
  53       18       49 1
  54       27       50 1
  55       31       51 1
  56       32       52 1
  57       33       53 1
  58       34       54 1
  59       35       55 1
  60       36       56 1

@<TRIPOS>MOLECULE

  56   60
SMALL
USER_CHARGES
@<TRIPOS>ATOM
   1 C1          -1.8973     2.7959    -3.4931 C.3          1    LIG   0.0000
   2 O2          -1.2037     2.3082    -2.3540 O.3          1    LIG   0.0000
   3 C3          -1.7257     2.6618    -1.1600 C.ar         1    LIG   0.0000
   4 C4          -2.8683     3.4544    -1.1392 C.ar         1    LIG   0.0000
   5 C5          -3.4296     3.8342     0.0760 C.ar         1    LIG   0.0000
   6 C6          -2.8471     3.4218     1.2703 C.ar         1    LIG   0.0000
   7 C7          -1.7035     2.6307     1.2497 C.ar         1    LIG   0.0000
   8 C8          -1.1423     2.2501     0.0349 C.ar         1    LIG   0.0000
   9 C9           0.0502     1.4251     0.0140 C.2          1    LIG   0.0000
  10 N10          1.2906     1.8483     0.0086 N.2          1    LIG   0.0000
  11 N11          2.1113     0.8202    -0.0137 N.pl3        1    LIG   0.0000
  12 C12          3.5090     0.9029    -0.0286 C.ar         1    LIG   0.0000
  13 C13          4.1248     2.1502    -0.0198 C.ar         1    LIG   0.0000
  14 C14          5.5137     2.2230    -0.0354 C.ar         1    LIG   0.0000
  15 C15          6.2719     1.0563    -0.0592 C.ar         1    LIG   0.0000
  16 C16          5.6476    -0.1868    -0.0676 C.ar         1    LIG   0.0000
  17 C17          4.2588    -0.2685    -0.0527 C.ar         1    LIG   0.0000
  18 C18          1.4074    -0.3441    -0.0181 C.2          1    LIG   0.0000
  19 C19          0.0959     0.0164    -0.0018 C.2          1    LIG   0.0000
  20 C20         -1.0420    -0.8838     0.0003 C.2          1    LIG   0.0000
  21 O21         -2.0654    -0.5559     0.5343 O.2          1    LIG   0.0000
  22 N22         -0.9481    -2.1081    -0.6072 N.pl3        1    LIG  -1.0000
  23 S23         -1.3875    -2.2226    -2.3077 S.o2         1    LIG   0.0000
  24 O24         -1.6778    -3.5940    -2.6371 O.2          1    LIG   0.0000
  25 O25         -2.5510    -1.4121    -2.5583 O.2          1    LIG   0.0000
  26 C26         -0.0634    -1.6572    -3.2891 C.2          1    LIG   0.0000
  27 C27          0.1348    -0.3197    -3.7147 C.2          1    LIG   0.0000
  28 N28          1.2489    -0.3257    -4.4189 N.2          1    LIG   0.0000
  29 N29          1.7617    -1.5408    -4.4669 N.pl3        1    LIG   0.0000
  30 C30          2.9363    -1.9172    -5.1298 C.ar         1    LIG   0.0000
  31 C31          3.6738    -0.9608    -5.8199 C.ar         1    LIG   0.0000
  32 C32          4.8389    -1.3437    -6.4761 C.ar         1    LIG   0.0000
  33 C33          5.2556    -2.6709    -6.4376 C.ar         1    LIG   0.0000
  34 C34          4.5120    -3.6206    -5.7447 C.ar         1    LIG   0.0000
  35 C35          3.3451    -3.2461    -5.0862 C.ar         1    LIG   0.0000
  36 C36          0.9692    -2.4047    -3.7732 C.2          1    LIG   0.0000
  37 H           -1.4366     2.4824    -4.3234 H            1    LIG   0.0000
  38 H           -2.8367     2.4532    -3.4834 H            1    LIG   0.0000
  39 H           -1.9070     3.7957    -3.4746 H            1    LIG   0.0000
  40 H           -3.2866     3.7513    -1.9977 H            1    LIG   0.0000
  41 H           -4.2515     4.4036     0.0910 H            1    LIG   0.0000
  42 H           -3.2509     3.6943     2.1436 H            1    LIG   0.0000
  43 H           -1.2845     2.3353     2.1083 H            1    LIG   0.0000
  44 H            3.5750     2.9853    -0.0025 H            1    LIG   0.0000
  45 H            5.9676     3.1140    -0.0296 H            1    LIG   0.0000
  46 H            7.2703     1.1118    -0.0704 H            1    LIG   0.0000
  47 H            6.1973    -1.0220    -0.0842 H            1    LIG   0.0000
  48 H            3.8047    -1.1594    -0.0594 H            1    LIG   0.0000
  49 H            1.7777    -1.2729    -0.0306 H            1    LIG   0.0000
  50 H           -0.4508     0.4673    -3.5205 H            1    LIG   0.0000
  51 H            3.3697    -0.0085    -5.8441 H            1    LIG   0.0000
  52 H            5.3772    -0.6651    -6.9757 H            1    LIG   0.0000
  53 H            6.0937    -2.9431    -6.9104 H            1    LIG   0.0000
  54 H            4.8163    -4.5729    -5.7199 H            1    LIG   0.0000
  55 H            2.8062    -3.9248    -4.5872 H            1    LIG   0.0000
  56 H            1.1148    -3.3858    -3.6453 H            1    LIG   0.0000
@<TRIPOS>BOND
   1        1        2 1
   2        2        3 1
   3        3        4 ar
   4        4        5 ar
   5        5        6 ar
   6        6        7 ar
   7        7        8 ar
   8        8        3 ar
   9        8        9 1
  10        9       10 2
  11       10       11 1
  12       11       12 1
  13       12       13 ar
  14       13       14 ar
  15       14       15 ar
  16       15       16 ar
  17       16       17 ar
  18       17       12 ar
  19       11       18 1
  20       18       19 2
  21       19        9 1
  22       19       20 1
  23       20       21 2
  24       20       22 1
  25       22       23 1
  26       23       24 2
  27       23       25 2
  28       23       26 1
  29       26       27 1
  30       27       28 2
  31       28       29 1
  32       29       30 1
  33       30       31 ar
  34       31       32 ar
  35       32       33 ar
  36       33       34 ar
  37       34       35 ar
  38       35       30 ar
  39       29       36 1
  40       36       26 2
  41        1       37 1
  42        1       38 1
  43        1       39 1
  44        4       40 1
  45        5       41 1
  46        6       42 1
  47        7       43 1
  48       13       44 1
  49       14       45 1
  50       15       46 1
  51       16       47 1
  52       17       48 1
  53       18       49 1
  54       27       50 1
  55       31       51 1
  56       32       52 1
  57       33       53 1
  58       34       54 1
  59       35       55 1
  60       36       56 1

@<TRIPOS>MOLECULE

  56   60
SMALL
USER_CHARGES
@<TRIPOS>ATOM
   1 C1          -1.8351     2.7057     3.5884 C.3          1    LIG   0.0000
   2 O2          -1.1615     2.2476     2.4253 O.3          1    LIG   0.0000
   3 C3          -1.7047     2.6309     1.2501 C.ar         1    LIG   0.0000
   4 C4          -2.8494     3.4206     1.2695 C.ar         1    LIG   0.0000
   5 C5          -3.4314     3.8316     0.0744 C.ar         1    LIG   0.0000
   6 C6          -2.8688     3.4519    -1.1400 C.ar         1    LIG   0.0000
   7 C7          -1.7250     2.6608    -1.1597 C.ar         1    LIG   0.0000
   8 C8          -1.1423     2.2501     0.0349 C.ar         1    LIG   0.0000
   9 C9           0.0502     1.4251     0.0140 C.2          1    LIG   0.0000
  10 N10          1.2906     1.8483     0.0086 N.2          1    LIG   0.0000
  11 N11          2.1113     0.8202    -0.0137 N.pl3        1    LIG   0.0000
  12 C12          3.5090     0.9029    -0.0286 C.ar         1    LIG   0.0000
  13 C13          4.1248     2.1502    -0.0198 C.ar         1    LIG   0.0000
  14 C14          5.5137     2.2230    -0.0354 C.ar         1    LIG   0.0000
  15 C15          6.2719     1.0563    -0.0592 C.ar         1    LIG   0.0000
  16 C16          5.6476    -0.1868    -0.0676 C.ar         1    LIG   0.0000
  17 C17          4.2588    -0.2685    -0.0527 C.ar         1    LIG   0.0000
  18 C18          1.4074    -0.3441    -0.0181 C.2          1    LIG   0.0000
  19 C19          0.0959     0.0164    -0.0018 C.2          1    LIG   0.0000
  20 C20         -1.0420    -0.8838     0.0003 C.2          1    LIG   0.0000
  21 O21         -2.0654    -0.5559     0.5343 O.2          1    LIG   0.0000
  22 N22         -0.9481    -2.1081    -0.6072 N.pl3        1    LIG  -1.0000
  23 S23         -0.3953    -3.4705     0.3603 S.o2         1    LIG   0.0000
  24 O24         -0.9765    -3.3923     1.6755 O.2          1    LIG   0.0000
  25 O25         -0.7974    -4.7012    -0.2699 O.2          1    LIG   0.0000
  26 C26          1.3417    -3.4244     0.4892 C.2          1    LIG   0.0000
  27 C27          2.0757    -2.7608     1.5042 C.2          1    LIG   0.0000
  28 N28          3.3466    -2.9844     1.2364 N.2          1    LIG   0.0000
  29 N29          3.4693    -3.7272     0.1524 N.pl3        1    LIG   0.0000
  30 C30          4.6709    -4.1550    -0.4254 C.ar         1    LIG   0.0000
  31 C31          5.8816    -3.7926     0.1559 C.ar         1    LIG   0.0000
  32 C32          7.0703    -4.2214    -0.4252 C.ar         1    LIG   0.0000
  33 C33          7.0404    -5.0044    -1.5752 C.ar         1    LIG   0.0000
  34 C34          5.8251    -5.3624    -2.1496 C.ar         1    LIG   0.0000
  35 C35          4.6315    -4.9371    -1.5751 C.ar         1    LIG   0.0000
  36 C36          2.2371    -4.0230    -0.3472 C.2          1    LIG   0.0000
  37 H           -1.3597     2.3717     4.4023 H            1    LIG   0.0000
  38 H           -1.8458     3.7056     3.5954 H            1    LIG   0.0000
  39 H           -2.7743     2.3624     3.5866 H            1    LIG   0.0000
  40 H           -3.2541     3.6930     2.1424 H            1    LIG   0.0000
  41 H           -4.2541     4.3999     0.0883 H            1    LIG   0.0000
  42 H           -3.2867     3.7478    -1.9989 H            1    LIG   0.0000
  43 H           -1.3215     2.3871    -2.0327 H            1    LIG   0.0000
  44 H            3.5750     2.9853    -0.0025 H            1    LIG   0.0000
  45 H            5.9676     3.1140    -0.0296 H            1    LIG   0.0000
  46 H            7.2703     1.1118    -0.0704 H            1    LIG   0.0000
  47 H            6.1973    -1.0220    -0.0842 H            1    LIG   0.0000
  48 H            3.8047    -1.1594    -0.0594 H            1    LIG   0.0000
  49 H            1.7777    -1.2729    -0.0306 H            1    LIG   0.0000
  50 H            1.7050    -2.2313     2.2673 H            1    LIG   0.0000
  51 H            5.8971    -3.2299     0.9824 H            1    LIG   0.0000
  52 H            7.9467    -3.9669    -0.0164 H            1    LIG   0.0000
  53 H            7.8967    -5.3113    -1.9907 H            1    LIG   0.0000
  54 H            5.8094    -5.9257    -2.9757 H            1    LIG   0.0000
  55 H            3.7549    -5.1909    -1.9841 H            1    LIG   0.0000
  56 H            2.0313    -4.5673    -1.1604 H            1    LIG   0.0000
@<TRIPOS>BOND
   1        1        2 1
   2        2        3 1
   3        3        4 ar
   4        4        5 ar
   5        5        6 ar
   6        6        7 ar
   7        7        8 ar
   8        8        3 ar
   9        8        9 1
  10        9       10 2
  11       10       11 1
  12       11       12 1
  13       12       13 ar
  14       13       14 ar
  15       14       15 ar
  16       15       16 ar
  17       16       17 ar
  18       17       12 ar
  19       11       18 1
  20       18       19 2
  21       19        9 1
  22       19       20 1
  23       20       21 2
  24       20       22 1
  25       22       23 1
  26       23       24 2
  27       23       25 2
  28       23       26 1
  29       26       27 1
  30       27       28 2
  31       28       29 1
  32       29       30 1
  33       30       31 ar
  34       31       32 ar
  35       32       33 ar
  36       33       34 ar
  37       34       35 ar
  38       35       30 ar
  39       29       36 1
  40       36       26 2
  41        1       37 1
  42        1       38 1
  43        1       39 1
  44        4       40 1
  45        5       41 1
  46        6       42 1
  47        7       43 1
  48       13       44 1
  49       14       45 1
  50       15       46 1
  51       16       47 1
  52       17       48 1
  53       18       49 1
  54       27       50 1
  55       31       51 1
  56       32       52 1
  57       33       53 1
  58       34       54 1
  59       35       55 1
  60       36       56 1

@<TRIPOS>MOLECULE

  56   60
SMALL
USER_CHARGES
@<TRIPOS>ATOM
   1 C1          -1.8973     2.7959    -3.4931 C.3          1    LIG   0.0000
   2 O2          -1.2037     2.3082    -2.3540 O.3          1    LIG   0.0000
   3 C3          -1.7257     2.6618    -1.1600 C.ar         1    LIG   0.0000
   4 C4          -2.8683     3.4544    -1.1392 C.ar         1    LIG   0.0000
   5 C5          -3.4296     3.8342     0.0760 C.ar         1    LIG   0.0000
   6 C6          -2.8471     3.4218     1.2703 C.ar         1    LIG   0.0000
   7 C7          -1.7035     2.6307     1.2497 C.ar         1    LIG   0.0000
   8 C8          -1.1423     2.2501     0.0349 C.ar         1    LIG   0.0000
   9 C9           0.0502     1.4251     0.0140 C.2          1    LIG   0.0000
  10 N10          1.2906     1.8483     0.0086 N.2          1    LIG   0.0000
  11 N11          2.1113     0.8202    -0.0137 N.pl3        1    LIG   0.0000
  12 C12          3.5090     0.9029    -0.0286 C.ar         1    LIG   0.0000
  13 C13          4.1248     2.1502    -0.0198 C.ar         1    LIG   0.0000
  14 C14          5.5137     2.2230    -0.0354 C.ar         1    LIG   0.0000
  15 C15          6.2719     1.0563    -0.0592 C.ar         1    LIG   0.0000
  16 C16          5.6476    -0.1868    -0.0676 C.ar         1    LIG   0.0000
  17 C17          4.2588    -0.2685    -0.0527 C.ar         1    LIG   0.0000
  18 C18          1.4074    -0.3441    -0.0181 C.2          1    LIG   0.0000
  19 C19          0.0959     0.0164    -0.0018 C.2          1    LIG   0.0000
  20 C20         -1.0420    -0.8838     0.0003 C.2          1    LIG   0.0000
  21 O21         -2.0654    -0.5559     0.5343 O.2          1    LIG   0.0000
  22 N22         -0.9481    -2.1081    -0.6072 N.pl3        1    LIG  -1.0000
  23 S23         -0.3953    -3.4705     0.3603 S.o2         1    LIG   0.0000
  24 O24         -0.9765    -3.3923     1.6755 O.2          1    LIG   0.0000
  25 O25         -0.7974    -4.7012    -0.2699 O.2          1    LIG   0.0000
  26 C26          1.3417    -3.4244     0.4892 C.2          1    LIG   0.0000
  27 C27          2.2513    -4.0446    -0.4038 C.2          1    LIG   0.0000
  28 N28          3.4553    -3.7554     0.0478 N.2          1    LIG   0.0000
  29 N29          3.3774    -3.0114     1.1352 N.pl3        1    LIG   0.0000
  30 C30          4.4564    -2.5232     1.8822 C.ar         1    LIG   0.0000
  31 C31          5.7569    -2.8191     1.4874 C.ar         1    LIG   0.0000
  32 C32          6.8227    -2.3305     2.2358 C.ar         1    LIG   0.0000
  33 C33          6.5822    -1.5547     3.3657 C.ar         1    LIG   0.0000
  34 C34          5.2783    -1.2634     3.7531 C.ar         1    LIG   0.0000
  35 C35          4.2066    -1.7487     3.0105 C.ar         1    LIG   0.0000
  36 C36          2.0711    -2.7829     1.4463 C.2          1    LIG   0.0000
  37 H           -1.4366     2.4824    -4.3234 H            1    LIG   0.0000
  38 H           -2.8367     2.4532    -3.4834 H            1    LIG   0.0000
  39 H           -1.9070     3.7957    -3.4746 H            1    LIG   0.0000
  40 H           -3.2866     3.7513    -1.9977 H            1    LIG   0.0000
  41 H           -4.2515     4.4036     0.0910 H            1    LIG   0.0000
  42 H           -3.2509     3.6943     2.1436 H            1    LIG   0.0000
  43 H           -1.2845     2.3353     2.1083 H            1    LIG   0.0000
  44 H            3.5750     2.9853    -0.0025 H            1    LIG   0.0000
  45 H            5.9676     3.1140    -0.0296 H            1    LIG   0.0000
  46 H            7.2703     1.1118    -0.0704 H            1    LIG   0.0000
  47 H            6.1973    -1.0220    -0.0842 H            1    LIG   0.0000
  48 H            3.8047    -1.1594    -0.0594 H            1    LIG   0.0000
  49 H            1.7777    -1.2729    -0.0306 H            1    LIG   0.0000
  50 H            2.0257    -4.5898    -1.2111 H            1    LIG   0.0000
  51 H            5.9239    -3.3769     0.6744 H            1    LIG   0.0000
  52 H            7.7620    -2.5369     1.9618 H            1    LIG   0.0000
  53 H            7.3505    -1.2048     3.9018 H            1    LIG   0.0000
  54 H            5.1113    -0.7050     4.5657 H            1    LIG   0.0000
  55 H            3.2672    -1.5431     3.2847 H            1    LIG   0.0000
  56 H            1.7192    -2.2533     2.2181 H            1    LIG   0.0000
@<TRIPOS>BOND
   1        1        2 1
   2        2        3 1
   3        3        4 ar
   4        4        5 ar
   5        5        6 ar
   6        6        7 ar
   7        7        8 ar
   8        8        3 ar
   9        8        9 1
  10        9       10 2
  11       10       11 1
  12       11       12 1
  13       12       13 ar
  14       13       14 ar
  15       14       15 ar
  16       15       16 ar
  17       16       17 ar
  18       17       12 ar
  19       11       18 1
  20       18       19 2
  21       19        9 1
  22       19       20 1
  23       20       21 2
  24       20       22 1
  25       22       23 1
  26       23       24 2
  27       23       25 2
  28       23       26 1
  29       26       27 1
  30       27       28 2
  31       28       29 1
  32       29       30 1
  33       30       31 ar
  34       31       32 ar
  35       32       33 ar
  36       33       34 ar
  37       34       35 ar
  38       35       30 ar
  39       29       36 1
  40       36       26 2
  41        1       37 1
  42        1       38 1
  43        1       39 1
  44        4       40 1
  45        5       41 1
  46        6       42 1
  47        7       43 1
  48       13       44 1
  49       14       45 1
  50       15       46 1
  51       16       47 1
  52       17       48 1
  53       18       49 1
  54       27       50 1
  55       31       51 1
  56       32       52 1
  57       33       53 1
  58       34       54 1
  59       35       55 1
  60       36       56 1

@<TRIPOS>MOLECULE

  56   60
SMALL
USER_CHARGES
@<TRIPOS>ATOM
   1 C1          -1.8351     2.7057     3.5884 C.3          1    LIG   0.0000
   2 O2          -1.1615     2.2476     2.4253 O.3          1    LIG   0.0000
   3 C3          -1.7047     2.6309     1.2501 C.ar         1    LIG   0.0000
   4 C4          -2.8494     3.4206     1.2695 C.ar         1    LIG   0.0000
   5 C5          -3.4314     3.8316     0.0744 C.ar         1    LIG   0.0000
   6 C6          -2.8688     3.4519    -1.1400 C.ar         1    LIG   0.0000
   7 C7          -1.7250     2.6608    -1.1597 C.ar         1    LIG   0.0000
   8 C8          -1.1423     2.2501     0.0349 C.ar         1    LIG   0.0000
   9 C9           0.0502     1.4251     0.0140 C.2          1    LIG   0.0000
  10 N10          1.2906     1.8483     0.0086 N.2          1    LIG   0.0000
  11 N11          2.1113     0.8202    -0.0137 N.pl3        1    LIG   0.0000
  12 C12          3.5090     0.9029    -0.0286 C.ar         1    LIG   0.0000
  13 C13          4.1248     2.1502    -0.0198 C.ar         1    LIG   0.0000
  14 C14          5.5137     2.2230    -0.0354 C.ar         1    LIG   0.0000
  15 C15          6.2719     1.0563    -0.0592 C.ar         1    LIG   0.0000
  16 C16          5.6476    -0.1868    -0.0676 C.ar         1    LIG   0.0000
  17 C17          4.2588    -0.2685    -0.0527 C.ar         1    LIG   0.0000
  18 C18          1.4074    -0.3441    -0.0181 C.2          1    LIG   0.0000
  19 C19          0.0959     0.0164    -0.0018 C.2          1    LIG   0.0000
  20 C20         -1.0420    -0.8838     0.0003 C.2          1    LIG   0.0000
  21 O21         -2.0763    -0.5446    -0.5048 O.2          1    LIG   0.0000
  22 N22         -0.9356    -2.1210     0.5791 N.pl3        1    LIG  -1.0000
  23 S23         -0.4036    -3.4619    -0.4292 S.o2         1    LIG   0.0000
  24 O24          0.6466    -3.0150    -1.3072 O.2          1    LIG   0.0000
  25 O25          0.0900    -4.5250     0.4073 O.2          1    LIG   0.0000
  26 C26         -1.7449    -4.0436    -1.3771 C.2          1    LIG   0.0000
  27 C27         -2.6524    -5.0594    -0.9848 C.2          1    LIG   0.0000
  28 N28         -3.5102    -5.1813    -1.9780 N.2          1    LIG   0.0000
  29 N29         -3.2214    -4.3340    -2.9479 N.pl3        1    LIG   0.0000
  30 C30         -3.9168    -4.1902    -4.1547 C.ar         1    LIG   0.0000
  31 C31         -5.0257    -4.9904    -4.4097 C.ar         1    LIG   0.0000
  32 C32         -5.7100    -4.8413    -5.6114 C.ar         1    LIG   0.0000
  33 C33         -5.2839    -3.8995    -6.5431 C.ar         1    LIG   0.0000
  34 C34         -4.1740    -3.1034    -6.2796 C.ar         1    LIG   0.0000
  35 C35         -3.4835    -3.2465    -5.0803 C.ar         1    LIG   0.0000
  36 C36         -2.1215    -3.6041    -2.6118 C.2          1    LIG   0.0000
  37 H           -1.3597     2.3717     4.4023 H            1    LIG   0.0000
  38 H           -1.8458     3.7056     3.5954 H            1    LIG   0.0000
  39 H           -2.7743     2.3624     3.5866 H            1    LIG   0.0000
  40 H           -3.2541     3.6930     2.1424 H            1    LIG   0.0000
  41 H           -4.2541     4.3999     0.0883 H            1    LIG   0.0000
  42 H           -3.2867     3.7478    -1.9989 H            1    LIG   0.0000
  43 H           -1.3215     2.3871    -2.0327 H            1    LIG   0.0000
  44 H            3.5750     2.9853    -0.0025 H            1    LIG   0.0000
  45 H            5.9676     3.1140    -0.0296 H            1    LIG   0.0000
  46 H            7.2703     1.1118    -0.0704 H            1    LIG   0.0000
  47 H            6.1973    -1.0220    -0.0842 H            1    LIG   0.0000
  48 H            3.8047    -1.1594    -0.0594 H            1    LIG   0.0000
  49 H            1.7777    -1.2729    -0.0306 H            1    LIG   0.0000
  50 H           -2.6436    -5.5775    -0.1295 H            1    LIG   0.0000
  51 H           -5.3276    -5.6654    -3.7365 H            1    LIG   0.0000
  52 H           -6.5084    -5.4110    -5.8060 H            1    LIG   0.0000
  53 H           -5.7779    -3.7946    -7.4062 H            1    LIG   0.0000
  54 H           -3.8724    -2.4279    -6.9525 H            1    LIG   0.0000
  55 H           -2.6846    -2.6774    -4.8859 H            1    LIG   0.0000
  56 H           -1.6807    -2.8921    -3.1583 H            1    LIG   0.0000
@<TRIPOS>BOND
   1        1        2 1
   2        2        3 1
   3        3        4 ar
   4        4        5 ar
   5        5        6 ar
   6        6        7 ar
   7        7        8 ar
   8        8        3 ar
   9        8        9 1
  10        9       10 2
  11       10       11 1
  12       11       12 1
  13       12       13 ar
  14       13       14 ar
  15       14       15 ar
  16       15       16 ar
  17       16       17 ar
  18       17       12 ar
  19       11       18 1
  20       18       19 2
  21       19        9 1
  22       19       20 1
  23       20       21 2
  24       20       22 1
  25       22       23 1
  26       23       24 2
  27       23       25 2
  28       23       26 1
  29       26       27 1
  30       27       28 2
  31       28       29 1
  32       29       30 1
  33       30       31 ar
  34       31       32 ar
  35       32       33 ar
  36       33       34 ar
  37       34       35 ar
  38       35       30 ar
  39       29       36 1
  40       36       26 2
  41        1       37 1
  42        1       38 1
  43        1       39 1
  44        4       40 1
  45        5       41 1
  46        6       42 1
  47        7       43 1
  48       13       44 1
  49       14       45 1
  50       15       46 1
  51       16       47 1
  52       17       48 1
  53       18       49 1
  54       27       50 1
  55       31       51 1
  56       32       52 1
  57       33       53 1
  58       34       54 1
  59       35       55 1
  60       36       56 1

