@<TRIPOS>MOLECULE
*****
 56 60 0 0 0
SMALL
USER_CHARGES

@<TRIPOS>ATOM
      1 C1         -1.8973    2.7959   -3.4931 C.3     1  LIG1        0.0000
      2 O2         -1.2037    2.3082   -2.3540 O.2     1  LIG1        0.0000
      3 C3         -1.7257    2.6618   -1.1600 C.3     1  LIG1        0.0000
      4 C4         -2.8683    3.4544   -1.1392 C.3     1  LIG1        0.0000
      5 C5         -3.4296    3.8342    0.0760 C.3     1  LIG1        0.0000
      6 C6         -2.8471    3.4218    1.2703 C.3     1  LIG1        0.0000
      7 C7         -1.7035    2.6307    1.2497 C.3     1  LIG1        0.0000
      8 C8         -1.1423    2.2501    0.0349 C.3     1  LIG1        0.0000
      9 C9          0.0502    1.4251    0.0140 C.2     1  LIG1        0.0000
     10 N10         1.2906    1.8483    0.0086 N.2     1  LIG1        0.0000
     11 N11         2.1113    0.8202   -0.0137 N.pl3   1  LIG1        0.0000
     12 C12         3.5090    0.9029   -0.0286 C.3     1  LIG1        0.0000
     13 C13         4.1248    2.1502   -0.0198 C.3     1  LIG1        0.0000
     14 C14         5.5137    2.2230   -0.0354 C.3     1  LIG1        0.0000
     15 C15         6.2719    1.0563   -0.0592 C.3     1  LIG1        0.0000
     16 C16         5.6476   -0.1868   -0.0676 C.3     1  LIG1        0.0000
     17 C17         4.2588   -0.2685   -0.0527 C.3     1  LIG1        0.0000
     18 C18         1.4074   -0.3441   -0.0181 C.2     1  LIG1        0.0000
     19 C19         0.0959    0.0164   -0.0018 C.2     1  LIG1        0.0000
     20 C20        -1.0420   -0.8838    0.0003 C.2     1  LIG1        0.0000
     21 O21        -2.0654   -0.5559    0.5343 O.2     1  LIG1        0.0000
     22 N22        -0.9481   -2.1081   -0.6072 N.am    1  LIG1       -1.0000
     23 S23        -1.3875   -2.2226   -2.3077 S.O2    1  LIG1        0.0000
     24 O24        -1.6778   -3.5940   -2.6371 O.2     1  LIG1        0.0000
     25 O25        -2.5510   -1.4121   -2.5583 O.2     1  LIG1        0.0000
     26 C26        -0.0634   -1.6572   -3.2891 C.2     1  LIG1        0.0000
     27 C27         0.1348   -0.3197   -3.7147 C.2     1  LIG1        0.0000
     28 N28         1.2489   -0.3257   -4.4189 N.2     1  LIG1        0.0000
     29 N29         1.7617   -1.5408   -4.4669 N.pl3   1  LIG1        0.0000
     30 C30         2.9363   -1.9172   -5.1298 C.3     1  LIG1        0.0000
     31 C31         3.6738   -0.9608   -5.8199 C.3     1  LIG1        0.0000
     32 C32         4.8389   -1.3437   -6.4761 C.3     1  LIG1        0.0000
     33 C33         5.2556   -2.6709   -6.4376 C.3     1  LIG1        0.0000
     34 C34         4.5120   -3.6206   -5.7447 C.3     1  LIG1        0.0000
     35 C35         3.3451   -3.2461   -5.0862 C.3     1  LIG1        0.0000
     36 C36         0.9692   -2.4047   -3.7732 C.2     1  LIG1        0.0000
     37 H          -1.4366    2.4824   -4.3234 H       1  LIG1        0.0000
     38 H          -2.8367    2.4532   -3.4834 H       1  LIG1        0.0000
     39 H          -1.9070    3.7957   -3.4746 H       1  LIG1        0.0000
     40 H          -3.2866    3.7513   -1.9977 H       1  LIG1        0.0000
     41 H          -4.2515    4.4036    0.0910 H       1  LIG1        0.0000
     42 H          -3.2509    3.6943    2.1436 H       1  LIG1        0.0000
     43 H          -1.2845    2.3353    2.1083 H       1  LIG1        0.0000
     44 H           3.5750    2.9853   -0.0025 H       1  LIG1        0.0000
     45 H           5.9676    3.1140   -0.0296 H       1  LIG1        0.0000
     46 H           7.2703    1.1118   -0.0704 H       1  LIG1        0.0000
     47 H           6.1973   -1.0220   -0.0842 H       1  LIG1        0.0000
     48 H           3.8047   -1.1594   -0.0594 H       1  LIG1        0.0000
     49 H           1.7777   -1.2729   -0.0306 H       1  LIG1        0.0000
     50 H          -0.4508    0.4673   -3.5205 H       1  LIG1        0.0000
     51 H           3.3697   -0.0085   -5.8441 H       1  LIG1        0.0000
     52 H           5.3772   -0.6651   -6.9757 H       1  LIG1        0.0000
     53 H           6.0937   -2.9431   -6.9104 H       1  LIG1        0.0000
     54 H           4.8163   -4.5729   -5.7199 H       1  LIG1        0.0000
     55 H           2.8062   -3.9248   -4.5872 H       1  LIG1        0.0000
     56 H           1.1148   -3.3858   -3.6453 H       1  LIG1        0.0000
@<TRIPOS>BOND
     1     1     2    1
     2     2     3    1
     3     3     4   ar
     4     4     5   ar
     5     5     6   ar
     6     6     7   ar
     7     7     8   ar
     8     8     3   ar
     9     8     9    1
    10     9    10    2
    11    10    11    1
    12    11    12    1
    13    12    13   ar
    14    13    14   ar
    15    14    15   ar
    16    15    16   ar
    17    16    17   ar
    18    17    12   ar
    19    11    18    1
    20    18    19    2
    21    19     9    1
    22    19    20    1
    23    20    21    2
    24    20    22    1
    25    22    23    1
    26    23    24    2
    27    23    25    2
    28    23    26    1
    29    26    27    1
    30    27    28    2
    31    28    29    1
    32    29    30    1
    33    30    31   ar
    34    31    32   ar
    35    32    33   ar
    36    33    34   ar
    37    34    35   ar
    38    35    30   ar
    39    29    36    1
    40    36    26    2
    41     1    37    1
    42     1    38    1
    43     1    39    1
    44     4    40    1
    45     5    41    1
    46     6    42    1
    47     7    43    1
    48    13    44    1
    49    14    45    1
    50    15    46    1
    51    16    47    1
    52    17    48    1
    53    18    49    1
    54    27    50    1
    55    31    51    1
    56    32    52    1
    57    33    53    1
    58    34    54    1
    59    35    55    1
    60    36    56    1
