@<TRIPOS>MOLECULE
*****
 56 60 0 0 0
SMALL
USER_CHARGES

@<TRIPOS>ATOM
      1 C1         -1.8351    2.7057    3.5884 C.3     1  LIG1        0.0000
      2 O2         -1.1615    2.2476    2.4253 O.2     1  LIG1        0.0000
      3 C3         -1.7047    2.6309    1.2501 C.3     1  LIG1        0.0000
      4 C4         -2.8494    3.4206    1.2695 C.3     1  LIG1        0.0000
      5 C5         -3.4314    3.8316    0.0744 C.3     1  LIG1        0.0000
      6 C6         -2.8688    3.4519   -1.1400 C.3     1  LIG1        0.0000
      7 C7         -1.7250    2.6608   -1.1597 C.3     1  LIG1        0.0000
      8 C8         -1.1423    2.2501    0.0349 C.3     1  LIG1        0.0000
      9 C9          0.0502    1.4251    0.0140 C.2     1  LIG1        0.0000
     10 N10         1.2906    1.8483    0.0086 N.2     1  LIG1        0.0000
     11 N11         2.1113    0.8202   -0.0137 N.pl3   1  LIG1        0.0000
     12 C12         3.5090    0.9029   -0.0286 C.3     1  LIG1        0.0000
     13 C13         4.1248    2.1502   -0.0198 C.3     1  LIG1        0.0000
     14 C14         5.5137    2.2230   -0.0354 C.3     1  LIG1        0.0000
     15 C15         6.2719    1.0563   -0.0592 C.3     1  LIG1        0.0000
     16 C16         5.6476   -0.1868   -0.0676 C.3     1  LIG1        0.0000
     17 C17         4.2588   -0.2685   -0.0527 C.3     1  LIG1        0.0000
     18 C18         1.4074   -0.3441   -0.0181 C.2     1  LIG1        0.0000
     19 C19         0.0959    0.0164   -0.0018 C.2     1  LIG1        0.0000
     20 C20        -1.0420   -0.8838    0.0003 C.2     1  LIG1        0.0000
     21 O21        -2.0763   -0.5446   -0.5048 O.2     1  LIG1        0.0000
     22 N22        -0.9356   -2.1210    0.5791 N.am    1  LIG1       -1.0000
     23 S23        -0.4036   -3.4619   -0.4292 S.O2    1  LIG1        0.0000
     24 O24         0.6466   -3.0150   -1.3072 O.2     1  LIG1        0.0000
     25 O25         0.0900   -4.5250    0.4073 O.2     1  LIG1        0.0000
     26 C26        -1.7449   -4.0436   -1.3771 C.2     1  LIG1        0.0000
     27 C27        -2.6524   -5.0594   -0.9848 C.2     1  LIG1        0.0000
     28 N28        -3.5102   -5.1813   -1.9780 N.2     1  LIG1        0.0000
     29 N29        -3.2214   -4.3340   -2.9479 N.pl3   1  LIG1        0.0000
     30 C30        -3.9168   -4.1902   -4.1547 C.3     1  LIG1        0.0000
     31 C31        -5.0257   -4.9904   -4.4097 C.3     1  LIG1        0.0000
     32 C32        -5.7100   -4.8413   -5.6114 C.3     1  LIG1        0.0000
     33 C33        -5.2839   -3.8995   -6.5431 C.3     1  LIG1        0.0000
     34 C34        -4.1740   -3.1034   -6.2796 C.3     1  LIG1        0.0000
     35 C35        -3.4835   -3.2465   -5.0803 C.3     1  LIG1        0.0000
     36 C36        -2.1215   -3.6041   -2.6118 C.2     1  LIG1        0.0000
     37 H          -1.3597    2.3717    4.4023 H       1  LIG1        0.0000
     38 H          -1.8458    3.7056    3.5954 H       1  LIG1        0.0000
     39 H          -2.7743    2.3624    3.5866 H       1  LIG1        0.0000
     40 H          -3.2541    3.6930    2.1424 H       1  LIG1        0.0000
     41 H          -4.2541    4.3999    0.0883 H       1  LIG1        0.0000
     42 H          -3.2867    3.7478   -1.9989 H       1  LIG1        0.0000
     43 H          -1.3215    2.3871   -2.0327 H       1  LIG1        0.0000
     44 H           3.5750    2.9853   -0.0025 H       1  LIG1        0.0000
     45 H           5.9676    3.1140   -0.0296 H       1  LIG1        0.0000
     46 H           7.2703    1.1118   -0.0704 H       1  LIG1        0.0000
     47 H           6.1973   -1.0220   -0.0842 H       1  LIG1        0.0000
     48 H           3.8047   -1.1594   -0.0594 H       1  LIG1        0.0000
     49 H           1.7777   -1.2729   -0.0306 H       1  LIG1        0.0000
     50 H          -2.6436   -5.5775   -0.1295 H       1  LIG1        0.0000
     51 H          -5.3276   -5.6654   -3.7365 H       1  LIG1        0.0000
     52 H          -6.5084   -5.4110   -5.8060 H       1  LIG1        0.0000
     53 H          -5.7779   -3.7946   -7.4062 H       1  LIG1        0.0000
     54 H          -3.8724   -2.4279   -6.9525 H       1  LIG1        0.0000
     55 H          -2.6846   -2.6774   -4.8859 H       1  LIG1        0.0000
     56 H          -1.6807   -2.8921   -3.1583 H       1  LIG1        0.0000
@<TRIPOS>BOND
     1     1     2    1
     2     2     3    1
     3     3     4   ar
     4     4     5   ar
     5     5     6   ar
     6     6     7   ar
     7     7     8   ar
     8     8     3   ar
     9     8     9    1
    10     9    10    2
    11    10    11    1
    12    11    12    1
    13    12    13   ar
    14    13    14   ar
    15    14    15   ar
    16    15    16   ar
    17    16    17   ar
    18    17    12   ar
    19    11    18    1
    20    18    19    2
    21    19     9    1
    22    19    20    1
    23    20    21    2
    24    20    22    1
    25    22    23    1
    26    23    24    2
    27    23    25    2
    28    23    26    1
    29    26    27    1
    30    27    28    2
    31    28    29    1
    32    29    30    1
    33    30    31   ar
    34    31    32   ar
    35    32    33   ar
    36    33    34   ar
    37    34    35   ar
    38    35    30   ar
    39    29    36    1
    40    36    26    2
    41     1    37    1
    42     1    38    1
    43     1    39    1
    44     4    40    1
    45     5    41    1
    46     6    42    1
    47     7    43    1
    48    13    44    1
    49    14    45    1
    50    15    46    1
    51    16    47    1
    52    17    48    1
    53    18    49    1
    54    27    50    1
    55    31    51    1
    56    32    52    1
    57    33    53    1
    58    34    54    1
    59    35    55    1
    60    36    56    1
