@<TRIPOS>MOLECULE
*****
 56 60 0 0 0
SMALL
USER_CHARGES

@<TRIPOS>ATOM
      1 C1         -1.8351    2.7057    3.5884 C.3     1  LIG1        0.0000
      2 O2         -1.1615    2.2476    2.4253 O.2     1  LIG1        0.0000
      3 C3         -1.7047    2.6309    1.2501 C.3     1  LIG1        0.0000
      4 C4         -2.8494    3.4206    1.2695 C.3     1  LIG1        0.0000
      5 C5         -3.4314    3.8316    0.0744 C.3     1  LIG1        0.0000
      6 C6         -2.8688    3.4519   -1.1400 C.3     1  LIG1        0.0000
      7 C7         -1.7250    2.6608   -1.1597 C.3     1  LIG1        0.0000
      8 C8         -1.1423    2.2501    0.0349 C.3     1  LIG1        0.0000
      9 C9          0.0502    1.4251    0.0140 C.2     1  LIG1        0.0000
     10 N10         1.2906    1.8483    0.0086 N.2     1  LIG1        0.0000
     11 N11         2.1113    0.8202   -0.0137 N.pl3   1  LIG1        0.0000
     12 C12         3.5090    0.9029   -0.0286 C.3     1  LIG1        0.0000
     13 C13         4.1248    2.1502   -0.0198 C.3     1  LIG1        0.0000
     14 C14         5.5137    2.2230   -0.0354 C.3     1  LIG1        0.0000
     15 C15         6.2719    1.0563   -0.0592 C.3     1  LIG1        0.0000
     16 C16         5.6476   -0.1868   -0.0676 C.3     1  LIG1        0.0000
     17 C17         4.2588   -0.2685   -0.0527 C.3     1  LIG1        0.0000
     18 C18         1.4074   -0.3441   -0.0181 C.2     1  LIG1        0.0000
     19 C19         0.0959    0.0164   -0.0018 C.2     1  LIG1        0.0000
     20 C20        -1.0420   -0.8838    0.0003 C.2     1  LIG1        0.0000
     21 O21        -1.1997   -1.6538   -0.9065 O.2     1  LIG1        0.0000
     22 N22        -1.9365   -0.8547    1.0376 N.am    1  LIG1       -1.0000
     23 S23        -3.2974   -1.9695    0.9866 S.O2    1  LIG1        0.0000
     24 O24        -2.8538   -3.2462    0.4897 O.2     1  LIG1        0.0000
     25 O25        -3.8355   -2.1311    2.3125 O.2     1  LIG1        0.0000
     26 C26        -4.5305   -1.3328   -0.0670 C.2     1  LIG1        0.0000
     27 C27        -4.6324   -1.5784   -1.4594 C.2     1  LIG1        0.0000
     28 N28        -5.7026   -0.9244   -1.8646 N.2     1  LIG1        0.0000
     29 N29        -6.2755   -0.2990   -0.8533 N.pl3   1  LIG1        0.0000
     30 C30        -7.4279    0.4937   -0.9171 C.3     1  LIG1        0.0000
     31 C31        -8.0724    0.6745   -2.1365 C.3     1  LIG1        0.0000
     32 C32        -9.2161    1.4642   -2.1907 C.3     1  LIG1        0.0000
     33 C33        -9.7042    2.0631   -1.0333 C.3     1  LIG1        0.0000
     34 C34        -9.0535    1.8766    0.1819 C.3     1  LIG1        0.0000
     35 C35        -7.9085    1.0888    0.2448 C.3     1  LIG1        0.0000
     36 C36        -5.5715   -0.5277    0.2902 C.2     1  LIG1        0.0000
     37 H          -1.3597    2.3717    4.4023 H       1  LIG1        0.0000
     38 H          -1.8458    3.7056    3.5954 H       1  LIG1        0.0000
     39 H          -2.7743    2.3624    3.5866 H       1  LIG1        0.0000
     40 H          -3.2541    3.6930    2.1424 H       1  LIG1        0.0000
     41 H          -4.2541    4.3999    0.0883 H       1  LIG1        0.0000
     42 H          -3.2867    3.7478   -1.9989 H       1  LIG1        0.0000
     43 H          -1.3215    2.3871   -2.0327 H       1  LIG1        0.0000
     44 H           3.5750    2.9853   -0.0025 H       1  LIG1        0.0000
     45 H           5.9676    3.1140   -0.0296 H       1  LIG1        0.0000
     46 H           7.2703    1.1118   -0.0704 H       1  LIG1        0.0000
     47 H           6.1973   -1.0220   -0.0842 H       1  LIG1        0.0000
     48 H           3.8047   -1.1594   -0.0594 H       1  LIG1        0.0000
     49 H           1.7777   -1.2729   -0.0306 H       1  LIG1        0.0000
     50 H          -4.0182   -2.1342   -2.0196 H       1  LIG1        0.0000
     51 H          -7.7173    0.2415   -2.9650 H       1  LIG1        0.0000
     52 H          -9.6878    1.6016   -3.0617 H       1  LIG1        0.0000
     53 H         -10.5268    2.6303   -1.0754 H       1  LIG1        0.0000
     54 H          -9.4088    2.3090    1.0107 H       1  LIG1        0.0000
     55 H          -7.4362    0.9519    1.1155 H       1  LIG1        0.0000
     56 H          -5.7761   -0.1771    1.2041 H       1  LIG1        0.0000
@<TRIPOS>BOND
     1     1     2    1
     2     2     3    1
     3     3     4   ar
     4     4     5   ar
     5     5     6   ar
     6     6     7   ar
     7     7     8   ar
     8     8     3   ar
     9     8     9    1
    10     9    10    2
    11    10    11    1
    12    11    12    1
    13    12    13   ar
    14    13    14   ar
    15    14    15   ar
    16    15    16   ar
    17    16    17   ar
    18    17    12   ar
    19    11    18    1
    20    18    19    2
    21    19     9    1
    22    19    20    1
    23    20    21    2
    24    20    22    1
    25    22    23    1
    26    23    24    2
    27    23    25    2
    28    23    26    1
    29    26    27    1
    30    27    28    2
    31    28    29    1
    32    29    30    1
    33    30    31   ar
    34    31    32   ar
    35    32    33   ar
    36    33    34   ar
    37    34    35   ar
    38    35    30   ar
    39    29    36    1
    40    36    26    2
    41     1    37    1
    42     1    38    1
    43     1    39    1
    44     4    40    1
    45     5    41    1
    46     6    42    1
    47     7    43    1
    48    13    44    1
    49    14    45    1
    50    15    46    1
    51    16    47    1
    52    17    48    1
    53    18    49    1
    54    27    50    1
    55    31    51    1
    56    32    52    1
    57    33    53    1
    58    34    54    1
    59    35    55    1
    60    36    56    1
