@<TRIPOS>MOLECULE

  30   31
SMALL
USER_CHARGES
@<TRIPOS>ATOM
   1 C1          -1.0133    -2.2730    -0.0012 C.3          1    LIG   0.0000
   2 C2          -1.3030    -0.7809     0.0089 C.3          1    LIG   0.0000
   3 C3           0.0109    -0.0080     0.0014 C.ar         1    LIG   0.0000
   4 N4           1.1997    -0.6400    -0.0131 N.ar         1    LIG   0.0000
   5 C5           2.3793     0.0073    -0.0214 C.ar         1    LIG   0.0000
   6 C6           3.7226    -0.7135    -0.0371 C.3          1    LIG   0.0000
   7 C7           2.3605     1.3982    -0.0144 C.ar         1    LIG   0.0000
   8 C8           1.1447     2.0743     0.0016 C.ar         1    LIG   0.0000
   9 S9           1.1456     3.8180     0.0120 S.3          1    LIG   0.0000
  10 C10          2.8437     4.1967    -0.0023 C.ar         1    LIG   0.0000
  11 C11          3.5105     4.3554    -1.2121 C.ar         1    LIG   0.0000
  12 C12          4.8682     4.6586    -1.2234 C.ar         1    LIG   0.0000
  13 C13          5.5423     4.7990    -0.0150 C.ar         1    LIG   0.0000
  14 Br14         7.4550     5.2265    -0.0205 Br           1    LIG   0.0000
  15 C15          4.8717     4.6392     1.1927 C.ar         1    LIG   0.0000
  16 Cl16         5.7546     4.8232     2.7269 Cl           1    LIG   0.0000
  17 C17          3.5145     4.3364     1.2080 C.ar         1    LIG   0.0000
  18 N18          0.0177     1.3378     0.0082 N.ar         1    LIG   0.0000
  19 H           -1.8752    -2.7800     0.0037 H            1    LIG   0.0000
  20 H           -0.4941    -2.5061    -0.8235 H            1    LIG   0.0000
  21 H           -0.4799    -2.5145     0.8095 H            1    LIG   0.0000
  22 H           -1.8364    -0.5394    -0.8018 H            1    LIG   0.0000
  23 H           -1.8222    -0.5477     0.8311 H            1    LIG   0.0000
  24 H            4.4620    -0.0403    -0.0412 H            1    LIG   0.0000
  25 H            3.8011    -1.2900     0.7761 H            1    LIG   0.0000
  26 H            3.7857    -1.2829    -0.8568 H            1    LIG   0.0000
  27 H            3.2190     1.9110    -0.0208 H            1    LIG   0.0000
  28 H            3.0142     4.2516    -2.0740 H            1    LIG   0.0000
  29 H            5.3536     4.7742    -2.0900 H            1    LIG   0.0000
  30 H            3.0291     4.2211     2.0746 H            1    LIG   0.0000
@<TRIPOS>BOND
   1        1        2 1
   2        2        3 1
   3        3        4 ar
   4        4        5 ar
   5        5        6 1
   6        5        7 ar
   7        7        8 ar
   8        8        9 1
   9        9       10 1
  10       10       11 ar
  11       11       12 ar
  12       12       13 ar
  13       13       14 1
  14       13       15 ar
  15       15       16 1
  16       15       17 ar
  17       17       10 ar
  18        8       18 ar
  19       18        3 ar
  20        1       19 1
  21        1       20 1
  22        1       21 1
  23        2       22 1
  24        2       23 1
  25        6       24 1
  26        6       25 1
  27        6       26 1
  28        7       27 1
  29       11       28 1
  30       12       29 1
  31       17       30 1

@<TRIPOS>MOLECULE

  30   31
SMALL
USER_CHARGES
@<TRIPOS>ATOM
   1 C1          -1.0133    -2.2730    -0.0012 C.3          1    LIG   0.0000
   2 C2          -1.3030    -0.7809     0.0089 C.3          1    LIG   0.0000
   3 C3           0.0109    -0.0080     0.0014 C.ar         1    LIG   0.0000
   4 N4           1.1997    -0.6400    -0.0131 N.ar         1    LIG   0.0000
   5 C5           2.3793     0.0073    -0.0214 C.ar         1    LIG   0.0000
   6 C6           3.7226    -0.7135    -0.0371 C.3          1    LIG   0.0000
   7 C7           2.3605     1.3982    -0.0144 C.ar         1    LIG   0.0000
   8 C8           1.1447     2.0743     0.0016 C.ar         1    LIG   0.0000
   9 S9           1.1456     3.8180     0.0120 S.3          1    LIG   0.0000
  10 C10          2.8437     4.1967    -0.0023 C.ar         1    LIG   0.0000
  11 C11          3.5341     4.3408     1.1960 C.ar         1    LIG   0.0000
  12 C12          4.8919     4.6433     1.1843 C.ar         1    LIG   0.0000
  13 C13          5.5423     4.7983    -0.0352 C.ar         1    LIG   0.0000
  14 Br14         7.4552     5.2240    -0.0620 Br           1    LIG   0.0000
  15 C15          4.8481     4.6536    -1.2314 C.ar         1    LIG   0.0000
  16 Cl16         5.7007     4.8567    -2.7802 Cl           1    LIG   0.0000
  17 C17          3.4907     4.3510    -1.2238 C.ar         1    LIG   0.0000
  18 N18          0.0177     1.3378     0.0082 N.ar         1    LIG   0.0000
  19 H           -1.8752    -2.7800     0.0037 H            1    LIG   0.0000
  20 H           -0.4941    -2.5061    -0.8235 H            1    LIG   0.0000
  21 H           -0.4799    -2.5145     0.8095 H            1    LIG   0.0000
  22 H           -1.8364    -0.5394    -0.8018 H            1    LIG   0.0000
  23 H           -1.8222    -0.5477     0.8311 H            1    LIG   0.0000
  24 H            4.4620    -0.0403    -0.0412 H            1    LIG   0.0000
  25 H            3.8011    -1.2900     0.7761 H            1    LIG   0.0000
  26 H            3.7857    -1.2829    -0.8568 H            1    LIG   0.0000
  27 H            3.2190     1.9110    -0.0208 H            1    LIG   0.0000
  28 H            3.0546     4.2270     2.0661 H            1    LIG   0.0000
  29 H            5.3943     4.7480     2.0426 H            1    LIG   0.0000
  30 H            2.9884     4.2460    -2.0821 H            1    LIG   0.0000
@<TRIPOS>BOND
   1        1        2 1
   2        2        3 1
   3        3        4 ar
   4        4        5 ar
   5        5        6 1
   6        5        7 ar
   7        7        8 ar
   8        8        9 1
   9        9       10 1
  10       10       11 ar
  11       11       12 ar
  12       12       13 ar
  13       13       14 1
  14       13       15 ar
  15       15       16 1
  16       15       17 ar
  17       17       10 ar
  18        8       18 ar
  19       18        3 ar
  20        1       19 1
  21        1       20 1
  22        1       21 1
  23        2       22 1
  24        2       23 1
  25        6       24 1
  26        6       25 1
  27        6       26 1
  28        7       27 1
  29       11       28 1
  30       12       29 1
  31       17       30 1

@<TRIPOS>MOLECULE

  30   31
SMALL
USER_CHARGES
@<TRIPOS>ATOM
   1 C1          -1.0133    -2.2730    -0.0012 C.3          1    LIG   0.0000
   2 C2          -1.3030    -0.7809     0.0089 C.3          1    LIG   0.0000
   3 C3           0.0109    -0.0080     0.0014 C.ar         1    LIG   0.0000
   4 N4           1.1997    -0.6400    -0.0131 N.ar         1    LIG   0.0000
   5 C5           2.3793     0.0073    -0.0214 C.ar         1    LIG   0.0000
   6 C6           3.7226    -0.7135    -0.0371 C.3          1    LIG   0.0000
   7 C7           2.3605     1.3982    -0.0144 C.ar         1    LIG   0.0000
   8 C8           1.1447     2.0743     0.0016 C.ar         1    LIG   0.0000
   9 S9           1.1456     3.8180     0.0120 S.3          1    LIG   0.0000
  10 C10          0.8673     4.1877     1.6892 C.ar         1    LIG   0.0000
  11 C11          0.7125     3.1588     2.6116 C.ar         1    LIG   0.0000
  12 C12          0.4903     3.4545     3.9527 C.ar         1    LIG   0.0000
  13 C13          0.4258     4.7850     4.3526 C.ar         1    LIG   0.0000
  14 Br14         0.1137     5.2118     6.2398 Br           1    LIG   0.0000
  15 C15          0.5809     5.8110     3.4269 C.ar         1    LIG   0.0000
  16 Cl16         0.4944     7.5064     3.9612 Cl           1    LIG   0.0000
  17 C17          0.8035     5.5193     2.0855 C.ar         1    LIG   0.0000
  18 N18          0.0177     1.3378     0.0082 N.ar         1    LIG   0.0000
  19 H           -1.8752    -2.7800     0.0037 H            1    LIG   0.0000
  20 H           -0.4941    -2.5061    -0.8235 H            1    LIG   0.0000
  21 H           -0.4799    -2.5145     0.8095 H            1    LIG   0.0000
  22 H           -1.8364    -0.5394    -0.8018 H            1    LIG   0.0000
  23 H           -1.8222    -0.5477     0.8311 H            1    LIG   0.0000
  24 H            4.4620    -0.0403    -0.0412 H            1    LIG   0.0000
  25 H            3.8011    -1.2900     0.7761 H            1    LIG   0.0000
  26 H            3.7857    -1.2829    -0.8568 H            1    LIG   0.0000
  27 H            3.2190     1.9110    -0.0208 H            1    LIG   0.0000
  28 H            0.7608     2.2063     2.3109 H            1    LIG   0.0000
  29 H            0.3784     2.7192     4.6211 H            1    LIG   0.0000
  30 H            0.9157     6.2547     1.4171 H            1    LIG   0.0000
@<TRIPOS>BOND
   1        1        2 1
   2        2        3 1
   3        3        4 ar
   4        4        5 ar
   5        5        6 1
   6        5        7 ar
   7        7        8 ar
   8        8        9 1
   9        9       10 1
  10       10       11 ar
  11       11       12 ar
  12       12       13 ar
  13       13       14 1
  14       13       15 ar
  15       15       16 1
  16       15       17 ar
  17       17       10 ar
  18        8       18 ar
  19       18        3 ar
  20        1       19 1
  21        1       20 1
  22        1       21 1
  23        2       22 1
  24        2       23 1
  25        6       24 1
  26        6       25 1
  27        6       26 1
  28        7       27 1
  29       11       28 1
  30       12       29 1
  31       17       30 1

@<TRIPOS>MOLECULE

  30   31
SMALL
USER_CHARGES
@<TRIPOS>ATOM
   1 C1          -1.0133    -2.2730    -0.0012 C.3          1    LIG   0.0000
   2 C2          -1.3030    -0.7809     0.0089 C.3          1    LIG   0.0000
   3 C3           0.0109    -0.0080     0.0014 C.ar         1    LIG   0.0000
   4 N4           1.1997    -0.6400    -0.0131 N.ar         1    LIG   0.0000
   5 C5           2.3793     0.0073    -0.0214 C.ar         1    LIG   0.0000
   6 C6           3.7226    -0.7135    -0.0371 C.3          1    LIG   0.0000
   7 C7           2.3605     1.3982    -0.0144 C.ar         1    LIG   0.0000
   8 C8           1.1447     2.0743     0.0016 C.ar         1    LIG   0.0000
   9 S9           1.1456     3.8180     0.0120 S.3          1    LIG   0.0000
  10 C10          0.8673     4.1877     1.6892 C.ar         1    LIG   0.0000
  11 C11          0.7997     5.5120     2.1074 C.ar         1    LIG   0.0000
  12 C12          0.5768     5.8074     3.4484 C.ar         1    LIG   0.0000
  13 C13          0.4243     4.7653     4.3567 C.ar         1    LIG   0.0000
  14 Br14         0.1094     5.1713     6.2480 Br           1    LIG   0.0000
  15 C15          0.4928     3.4421     3.9344 C.ar         1    LIG   0.0000
  16 Cl16         0.2950     2.1246     5.1142 Cl           1    LIG   0.0000
  17 C17          0.7152     3.1429     2.5946 C.ar         1    LIG   0.0000
  18 N18          0.0177     1.3378     0.0082 N.ar         1    LIG   0.0000
  19 H           -1.8752    -2.7800     0.0037 H            1    LIG   0.0000
  20 H           -0.4941    -2.5061    -0.8235 H            1    LIG   0.0000
  21 H           -0.4799    -2.5145     0.8095 H            1    LIG   0.0000
  22 H           -1.8364    -0.5394    -0.8018 H            1    LIG   0.0000
  23 H           -1.8222    -0.5477     0.8311 H            1    LIG   0.0000
  24 H            4.4620    -0.0403    -0.0412 H            1    LIG   0.0000
  25 H            3.8011    -1.2900     0.7761 H            1    LIG   0.0000
  26 H            3.7857    -1.2829    -0.8568 H            1    LIG   0.0000
  27 H            3.2190     1.9110    -0.0208 H            1    LIG   0.0000
  28 H            0.9113     6.2521     1.4442 H            1    LIG   0.0000
  29 H            0.5269     6.7577     3.7557 H            1    LIG   0.0000
  30 H            0.7649     2.1926     2.2874 H            1    LIG   0.0000
@<TRIPOS>BOND
   1        1        2 1
   2        2        3 1
   3        3        4 ar
   4        4        5 ar
   5        5        6 1
   6        5        7 ar
   7        7        8 ar
   8        8        9 1
   9        9       10 1
  10       10       11 ar
  11       11       12 ar
  12       12       13 ar
  13       13       14 1
  14       13       15 ar
  15       15       16 1
  16       15       17 ar
  17       17       10 ar
  18        8       18 ar
  19       18        3 ar
  20        1       19 1
  21        1       20 1
  22        1       21 1
  23        2       22 1
  24        2       23 1
  25        6       24 1
  26        6       25 1
  27        6       26 1
  28        7       27 1
  29       11       28 1
  30       12       29 1
  31       17       30 1

@<TRIPOS>MOLECULE

  30   31
SMALL
USER_CHARGES
@<TRIPOS>ATOM
   1 C1          -1.0133    -2.2730    -0.0012 C.3          1    LIG   0.0000
   2 C2          -1.3030    -0.7809     0.0089 C.3          1    LIG   0.0000
   3 C3           0.0109    -0.0080     0.0014 C.ar         1    LIG   0.0000
   4 N4           1.1997    -0.6400    -0.0131 N.ar         1    LIG   0.0000
   5 C5           2.3793     0.0073    -0.0214 C.ar         1    LIG   0.0000
   6 C6           3.7226    -0.7135    -0.0371 C.3          1    LIG   0.0000
   7 C7           2.3605     1.3982    -0.0144 C.ar         1    LIG   0.0000
   8 C8           1.1447     2.0743     0.0016 C.ar         1    LIG   0.0000
   9 S9           1.1456     3.8180     0.0120 S.3          1    LIG   0.0000
  10 C10          0.8673     4.1877     1.6892 C.ar         1    LIG   0.0000
  11 C11          1.9439     4.3337     2.5569 C.ar         1    LIG   0.0000
  12 C12          1.7212     4.6296     3.8979 C.ar         1    LIG   0.0000
  13 C13          0.4151     4.7756     4.3529 C.ar         1    LIG   0.0000
  14 Br14         0.0912     5.1930     6.2402 Br           1    LIG   0.0000
  15 C15         -0.6588     4.6285     3.4818 C.ar         1    LIG   0.0000
  16 Cl16        -2.3218     4.8194     4.0861 Cl           1    LIG   0.0000
  17 C17         -0.4402     4.3329     2.1406 C.ar         1    LIG   0.0000
  18 N18          0.0177     1.3378     0.0082 N.ar         1    LIG   0.0000
  19 H           -1.8752    -2.7800     0.0037 H            1    LIG   0.0000
  20 H           -0.4941    -2.5061    -0.8235 H            1    LIG   0.0000
  21 H           -0.4799    -2.5145     0.8095 H            1    LIG   0.0000
  22 H           -1.8364    -0.5394    -0.8018 H            1    LIG   0.0000
  23 H           -1.8222    -0.5477     0.8311 H            1    LIG   0.0000
  24 H            4.4620    -0.0403    -0.0412 H            1    LIG   0.0000
  25 H            3.8011    -1.2900     0.7761 H            1    LIG   0.0000
  26 H            3.7857    -1.2829    -0.8568 H            1    LIG   0.0000
  27 H            3.2190     1.9110    -0.0208 H            1    LIG   0.0000
  28 H            2.8782     4.2260     2.2171 H            1    LIG   0.0000
  29 H            2.4911     4.7361     4.5271 H            1    LIG   0.0000
  30 H           -1.2101     4.2267     1.5114 H            1    LIG   0.0000
@<TRIPOS>BOND
   1        1        2 1
   2        2        3 1
   3        3        4 ar
   4        4        5 ar
   5        5        6 1
   6        5        7 ar
   7        7        8 ar
   8        8        9 1
   9        9       10 1
  10       10       11 ar
  11       11       12 ar
  12       12       13 ar
  13       13       14 1
  14       13       15 ar
  15       15       16 1
  16       15       17 ar
  17       17       10 ar
  18        8       18 ar
  19       18        3 ar
  20        1       19 1
  21        1       20 1
  22        1       21 1
  23        2       22 1
  24        2       23 1
  25        6       24 1
  26        6       25 1
  27        6       26 1
  28        7       27 1
  29       11       28 1
  30       12       29 1
  31       17       30 1

@<TRIPOS>MOLECULE

  30   31
SMALL
USER_CHARGES
@<TRIPOS>ATOM
   1 C1          -1.0133    -2.2730    -0.0012 C.3          1    LIG   0.0000
   2 C2          -1.3030    -0.7809     0.0089 C.3          1    LIG   0.0000
   3 C3           0.0109    -0.0080     0.0014 C.ar         1    LIG   0.0000
   4 N4           1.1997    -0.6400    -0.0131 N.ar         1    LIG   0.0000
   5 C5           2.3793     0.0073    -0.0214 C.ar         1    LIG   0.0000
   6 C6           3.7226    -0.7135    -0.0371 C.3          1    LIG   0.0000
   7 C7           2.3605     1.3982    -0.0144 C.ar         1    LIG   0.0000
   8 C8           1.1447     2.0743     0.0016 C.ar         1    LIG   0.0000
   9 S9           1.1456     3.8180     0.0120 S.3          1    LIG   0.0000
  10 C10          0.8673     4.1877     1.6892 C.ar         1    LIG   0.0000
  11 C11         -0.4317     4.3371     2.1620 C.ar         1    LIG   0.0000
  12 C12         -0.6541     4.6323     3.5032 C.ar         1    LIG   0.0000
  13 C13          0.4350     4.7747     4.3564 C.ar         1    LIG   0.0000
  14 Br14         0.1320     5.1901     6.2476 Br           1    LIG   0.0000
  15 C15          1.7326     4.6247     3.8795 C.ar         1    LIG   0.0000
  16 Cl16         3.1111     4.8116     4.9893 Cl           1    LIG   0.0000
  17 C17          1.9588     4.3293     2.5395 C.ar         1    LIG   0.0000
  18 N18          0.0177     1.3378     0.0082 N.ar         1    LIG   0.0000
  19 H           -1.8752    -2.7800     0.0037 H            1    LIG   0.0000
  20 H           -0.4941    -2.5061    -0.8235 H            1    LIG   0.0000
  21 H           -0.4799    -2.5145     0.8095 H            1    LIG   0.0000
  22 H           -1.8364    -0.5394    -0.8018 H            1    LIG   0.0000
  23 H           -1.8222    -0.5477     0.8311 H            1    LIG   0.0000
  24 H            4.4620    -0.0403    -0.0412 H            1    LIG   0.0000
  25 H            3.8011    -1.2900     0.7761 H            1    LIG   0.0000
  26 H            3.7857    -1.2829    -0.8568 H            1    LIG   0.0000
  27 H            3.2190     1.9110    -0.0208 H            1    LIG   0.0000
  28 H           -1.2061     4.2324     1.5380 H            1    LIG   0.0000
  29 H           -1.5858     4.7409     3.8496 H            1    LIG   0.0000
  30 H            2.8906     4.2205     2.1931 H            1    LIG   0.0000
@<TRIPOS>BOND
   1        1        2 1
   2        2        3 1
   3        3        4 ar
   4        4        5 ar
   5        5        6 1
   6        5        7 ar
   7        7        8 ar
   8        8        9 1
   9        9       10 1
  10       10       11 ar
  11       11       12 ar
  12       12       13 ar
  13       13       14 1
  14       13       15 ar
  15       15       16 1
  16       15       17 ar
  17       17       10 ar
  18        8       18 ar
  19       18        3 ar
  20        1       19 1
  21        1       20 1
  22        1       21 1
  23        2       22 1
  24        2       23 1
  25        6       24 1
  26        6       25 1
  27        6       26 1
  28        7       27 1
  29       11       28 1
  30       12       29 1
  31       17       30 1

@<TRIPOS>MOLECULE

  30   31
SMALL
USER_CHARGES
@<TRIPOS>ATOM
   1 C1          -1.0133    -2.2730    -0.0012 C.3          1    LIG   0.0000
   2 C2          -1.3030    -0.7809     0.0089 C.3          1    LIG   0.0000
   3 C3           0.0109    -0.0080     0.0014 C.ar         1    LIG   0.0000
   4 N4           1.1997    -0.6400    -0.0131 N.ar         1    LIG   0.0000
   5 C5           2.3793     0.0073    -0.0214 C.ar         1    LIG   0.0000
   6 C6           3.7226    -0.7135    -0.0371 C.3          1    LIG   0.0000
   7 C7           2.3605     1.3982    -0.0144 C.ar         1    LIG   0.0000
   8 C8           1.1447     2.0743     0.0016 C.ar         1    LIG   0.0000
   9 S9           1.1456     3.8180     0.0120 S.3          1    LIG   0.0000
  10 C10          0.8346     4.2077    -1.6549 C.ar         1    LIG   0.0000
  11 C11          0.6615     3.1899    -2.5863 C.ar         1    LIG   0.0000
  12 C12          0.4125     3.5017    -3.9190 C.ar         1    LIG   0.0000
  13 C13          0.3404     4.8368    -4.3017 C.ar         1    LIG   0.0000
  14 Br14        -0.0104     5.2862    -6.1768 Br           1    LIG   0.0000
  15 C15          0.5144     5.8517    -3.3671 C.ar         1    LIG   0.0000
  16 Cl16         0.4182     7.5533    -3.8793 Cl           1    LIG   0.0000
  17 C17          0.7632     5.5440    -2.0339 C.ar         1    LIG   0.0000
  18 N18          0.0177     1.3378     0.0082 N.ar         1    LIG   0.0000
  19 H           -1.8752    -2.7800     0.0037 H            1    LIG   0.0000
  20 H           -0.4941    -2.5061    -0.8235 H            1    LIG   0.0000
  21 H           -0.4799    -2.5145     0.8095 H            1    LIG   0.0000
  22 H           -1.8364    -0.5394    -0.8018 H            1    LIG   0.0000
  23 H           -1.8222    -0.5477     0.8311 H            1    LIG   0.0000
  24 H            4.4620    -0.0403    -0.0412 H            1    LIG   0.0000
  25 H            3.8011    -1.2900     0.7761 H            1    LIG   0.0000
  26 H            3.7857    -1.2829    -0.8568 H            1    LIG   0.0000
  27 H            3.2190     1.9110    -0.0208 H            1    LIG   0.0000
  28 H            0.7160     2.2339    -2.2982 H            1    LIG   0.0000
  29 H            0.2869     2.7744    -4.5938 H            1    LIG   0.0000
  30 H            0.8886     6.2713    -1.3591 H            1    LIG   0.0000
@<TRIPOS>BOND
   1        1        2 1
   2        2        3 1
   3        3        4 ar
   4        4        5 ar
   5        5        6 1
   6        5        7 ar
   7        7        8 ar
   8        8        9 1
   9        9       10 1
  10       10       11 ar
  11       11       12 ar
  12       12       13 ar
  13       13       14 1
  14       13       15 ar
  15       15       16 1
  16       15       17 ar
  17       17       10 ar
  18        8       18 ar
  19       18        3 ar
  20        1       19 1
  21        1       20 1
  22        1       21 1
  23        2       22 1
  24        2       23 1
  25        6       24 1
  26        6       25 1
  27        6       26 1
  28        7       27 1
  29       11       28 1
  30       12       29 1
  31       17       30 1

@<TRIPOS>MOLECULE

  30   31
SMALL
USER_CHARGES
@<TRIPOS>ATOM
   1 C1          -1.0133    -2.2730    -0.0012 C.3          1    LIG   0.0000
   2 C2          -1.3030    -0.7809     0.0089 C.3          1    LIG   0.0000
   3 C3           0.0109    -0.0080     0.0014 C.ar         1    LIG   0.0000
   4 N4           1.1997    -0.6400    -0.0131 N.ar         1    LIG   0.0000
   5 C5           2.3793     0.0073    -0.0214 C.ar         1    LIG   0.0000
   6 C6           3.7226    -0.7135    -0.0371 C.3          1    LIG   0.0000
   7 C7           2.3605     1.3982    -0.0144 C.ar         1    LIG   0.0000
   8 C8           1.1447     2.0743     0.0016 C.ar         1    LIG   0.0000
   9 S9           1.1456     3.8180     0.0120 S.3          1    LIG   0.0000
  10 C10          0.8346     4.2077    -1.6549 C.ar         1    LIG   0.0000
  11 C11          0.7592     5.5369    -2.0558 C.ar         1    LIG   0.0000
  12 C12          0.5109     5.8484    -3.3888 C.ar         1    LIG   0.0000
  13 C13          0.3404     4.8172    -4.3063 C.ar         1    LIG   0.0000
  14 Br14        -0.0093     5.2457    -6.1865 Br           1    LIG   0.0000
  15 C15          0.4164     3.4891    -3.9011 C.ar         1    LIG   0.0000
  16 Cl16         0.1947     2.1857    -5.0925 Cl           1    LIG   0.0000
  17 C17          0.6647     3.1738    -2.5696 C.ar         1    LIG   0.0000
  18 N18          0.0177     1.3378     0.0082 N.ar         1    LIG   0.0000
  19 H           -1.8752    -2.7800     0.0037 H            1    LIG   0.0000
  20 H           -0.4941    -2.5061    -0.8235 H            1    LIG   0.0000
  21 H           -0.4799    -2.5145     0.8095 H            1    LIG   0.0000
  22 H           -1.8364    -0.5394    -0.8018 H            1    LIG   0.0000
  23 H           -1.8222    -0.5477     0.8311 H            1    LIG   0.0000
  24 H            4.4620    -0.0403    -0.0412 H            1    LIG   0.0000
  25 H            3.8011    -1.2900     0.7761 H            1    LIG   0.0000
  26 H            3.7857    -1.2829    -0.8568 H            1    LIG   0.0000
  27 H            3.2190     1.9110    -0.0208 H            1    LIG   0.0000
  28 H            0.8834     6.2690    -1.3861 H            1    LIG   0.0000
  29 H            0.4557     6.8023    -3.6837 H            1    LIG   0.0000
  30 H            0.7202     2.2199    -2.2748 H            1    LIG   0.0000
@<TRIPOS>BOND
   1        1        2 1
   2        2        3 1
   3        3        4 ar
   4        4        5 ar
   5        5        6 1
   6        5        7 ar
   7        7        8 ar
   8        8        9 1
   9        9       10 1
  10       10       11 ar
  11       11       12 ar
  12       12       13 ar
  13       13       14 1
  14       13       15 ar
  15       15       16 1
  16       15       17 ar
  17       17       10 ar
  18        8       18 ar
  19       18        3 ar
  20        1       19 1
  21        1       20 1
  22        1       21 1
  23        2       22 1
  24        2       23 1
  25        6       24 1
  26        6       25 1
  27        6       26 1
  28        7       27 1
  29       11       28 1
  30       12       29 1
  31       17       30 1

@<TRIPOS>MOLECULE

  30   31
SMALL
USER_CHARGES
@<TRIPOS>ATOM
   1 C1          -1.0133    -2.2730    -0.0012 C.3          1    LIG   0.0000
   2 C2          -1.3030    -0.7809     0.0089 C.3          1    LIG   0.0000
   3 C3           0.0109    -0.0080     0.0014 C.ar         1    LIG   0.0000
   4 N4           1.1997    -0.6400    -0.0131 N.ar         1    LIG   0.0000
   5 C5           2.3793     0.0073    -0.0214 C.ar         1    LIG   0.0000
   6 C6           3.7226    -0.7135    -0.0371 C.3          1    LIG   0.0000
   7 C7           2.3605     1.3982    -0.0144 C.ar         1    LIG   0.0000
   8 C8           1.1447     2.0743     0.0016 C.ar         1    LIG   0.0000
   9 S9           1.1456     3.8180     0.0120 S.3          1    LIG   0.0000
  10 C10          0.8346     4.2077    -1.6549 C.ar         1    LIG   0.0000
  11 C11         -0.4733     4.3628    -2.1004 C.ar         1    LIG   0.0000
  12 C12         -0.7218     4.6748    -3.4331 C.ar         1    LIG   0.0000
  13 C13          0.3503     4.8274    -4.3058 C.ar         1    LIG   0.0000
  14 Br14         0.0106     5.2674    -6.1851 Br           1    LIG   0.0000
  15 C15          1.6570     4.6712    -3.8562 C.ar         1    LIG   0.0000
  16 Cl16         3.0136     4.8709    -4.9906 Cl           1    LIG   0.0000
  17 C17          1.9094     4.3596    -2.5246 C.ar         1    LIG   0.0000
  18 N18          0.0177     1.3378     0.0082 N.ar         1    LIG   0.0000
  19 H           -1.8752    -2.7800     0.0037 H            1    LIG   0.0000
  20 H           -0.4941    -2.5061    -0.8235 H            1    LIG   0.0000
  21 H           -0.4799    -2.5145     0.8095 H            1    LIG   0.0000
  22 H           -1.8364    -0.5394    -0.8018 H            1    LIG   0.0000
  23 H           -1.8222    -0.5477     0.8311 H            1    LIG   0.0000
  24 H            4.4620    -0.0403    -0.0412 H            1    LIG   0.0000
  25 H            3.8011    -1.2900     0.7761 H            1    LIG   0.0000
  26 H            3.7857    -1.2829    -0.8568 H            1    LIG   0.0000
  27 H            3.2190     1.9110    -0.0208 H            1    LIG   0.0000
  28 H           -1.2354     4.2502    -1.4628 H            1    LIG   0.0000
  29 H           -1.6601     4.7879    -3.7599 H            1    LIG   0.0000
  30 H            2.8477     4.2467    -2.1979 H            1    LIG   0.0000
@<TRIPOS>BOND
   1        1        2 1
   2        2        3 1
   3        3        4 ar
   4        4        5 ar
   5        5        6 1
   6        5        7 ar
   7        7        8 ar
   8        8        9 1
   9        9       10 1
  10       10       11 ar
  11       11       12 ar
  12       12       13 ar
  13       13       14 1
  14       13       15 ar
  15       15       16 1
  16       15       17 ar
  17       17       10 ar
  18        8       18 ar
  19       18        3 ar
  20        1       19 1
  21        1       20 1
  22        1       21 1
  23        2       22 1
  24        2       23 1
  25        6       24 1
  26        6       25 1
  27        6       26 1
  28        7       27 1
  29       11       28 1
  30       12       29 1
  31       17       30 1

@<TRIPOS>MOLECULE

  30   31
SMALL
USER_CHARGES
@<TRIPOS>ATOM
   1 C1          -1.0133    -2.2730    -0.0012 C.3          1    LIG   0.0000
   2 C2          -1.3030    -0.7809     0.0089 C.3          1    LIG   0.0000
   3 C3           0.0109    -0.0080     0.0014 C.ar         1    LIG   0.0000
   4 N4           1.1997    -0.6400    -0.0131 N.ar         1    LIG   0.0000
   5 C5           2.3793     0.0073    -0.0214 C.ar         1    LIG   0.0000
   6 C6           3.7226    -0.7135    -0.0371 C.3          1    LIG   0.0000
   7 C7           2.3605     1.3982    -0.0144 C.ar         1    LIG   0.0000
   8 C8           1.1447     2.0743     0.0016 C.ar         1    LIG   0.0000
   9 S9           1.1456     3.8180     0.0120 S.3          1    LIG   0.0000
  10 C10          0.8346     4.2077    -1.6549 C.ar         1    LIG   0.0000
  11 C11          1.8941     4.3640    -2.5417 C.ar         1    LIG   0.0000
  12 C12          1.6452     4.6753    -3.8746 C.ar         1    LIG   0.0000
  13 C13          0.3305     4.8266    -4.3023 C.ar         1    LIG   0.0000
  14 Br14        -0.0303     5.2645    -6.1781 Br           1    LIG   0.0000
  15 C15         -0.7262     4.6696    -3.4120 C.ar         1    LIG   0.0000
  16 Cl16        -2.4006     4.8682    -3.9812 Cl           1    LIG   0.0000
  17 C17         -0.4814     4.3582    -2.0789 C.ar         1    LIG   0.0000
  18 N18          0.0177     1.3378     0.0082 N.ar         1    LIG   0.0000
  19 H           -1.8752    -2.7800     0.0037 H            1    LIG   0.0000
  20 H           -0.4941    -2.5061    -0.8235 H            1    LIG   0.0000
  21 H           -0.4799    -2.5145     0.8095 H            1    LIG   0.0000
  22 H           -1.8364    -0.5394    -0.8018 H            1    LIG   0.0000
  23 H           -1.8222    -0.5477     0.8311 H            1    LIG   0.0000
  24 H            4.4620    -0.0403    -0.0412 H            1    LIG   0.0000
  25 H            3.8011    -1.2900     0.7761 H            1    LIG   0.0000
  26 H            3.7857    -1.2829    -0.8568 H            1    LIG   0.0000
  27 H            3.2190     1.9110    -0.0208 H            1    LIG   0.0000
  28 H            2.8348     4.2528    -2.2215 H            1    LIG   0.0000
  29 H            2.4027     4.7888    -4.5176 H            1    LIG   0.0000
  30 H           -1.2389     4.2444    -1.4360 H            1    LIG   0.0000
@<TRIPOS>BOND
   1        1        2 1
   2        2        3 1
   3        3        4 ar
   4        4        5 ar
   5        5        6 1
   6        5        7 ar
   7        7        8 ar
   8        8        9 1
   9        9       10 1
  10       10       11 ar
  11       11       12 ar
  12       12       13 ar
  13       13       14 1
  14       13       15 ar
  15       15       16 1
  16       15       17 ar
  17       17       10 ar
  18        8       18 ar
  19       18        3 ar
  20        1       19 1
  21        1       20 1
  22        1       21 1
  23        2       22 1
  24        2       23 1
  25        6       24 1
  26        6       25 1
  27        6       26 1
  28        7       27 1
  29       11       28 1
  30       12       29 1
  31       17       30 1

