@<TRIPOS>MOLECULE
*****
 30 31 0 0 0
SMALL
USER_CHARGES

@<TRIPOS>ATOM
      1 C1         -1.0133   -2.2730   -0.0012 C.3     1  LIG1        0.0000
      2 C2         -1.3030   -0.7809    0.0089 C.3     1  LIG1        0.0000
      3 C3          0.0109   -0.0080    0.0014 C.ar    1  LIG1        0.0000
      4 N4          1.1997   -0.6400   -0.0131 N.ar    1  LIG1        0.0000
      5 C5          2.3793    0.0073   -0.0214 C.ar    1  LIG1        0.0000
      6 C6          3.7226   -0.7135   -0.0371 C.3     1  LIG1        0.0000
      7 C7          2.3605    1.3982   -0.0144 C.ar    1  LIG1        0.0000
      8 C8          1.1447    2.0743    0.0016 C.ar    1  LIG1        0.0000
      9 S9          1.1456    3.8180    0.0120 S.3     1  LIG1        0.0000
     10 C10         0.8673    4.1877    1.6892 C.ar    1  LIG1        0.0000
     11 C11         1.9439    4.3337    2.5569 C.ar    1  LIG1        0.0000
     12 C12         1.7212    4.6296    3.8979 C.ar    1  LIG1        0.0000
     13 C13         0.4151    4.7756    4.3529 C.ar    1  LIG1        0.0000
     14 Br14        0.0912    5.1930    6.2402 Br      1  LIG1        0.0000
     15 C15        -0.6588    4.6285    3.4818 C.ar    1  LIG1        0.0000
     16 Cl16       -2.3218    4.8194    4.0861 Cl      1  LIG1        0.0000
     17 C17        -0.4402    4.3329    2.1406 C.ar    1  LIG1        0.0000
     18 N18         0.0177    1.3378    0.0082 N.ar    1  LIG1        0.0000
     19 H          -1.8752   -2.7800    0.0037 H       1  LIG1        0.0000
     20 H          -0.4941   -2.5061   -0.8235 H       1  LIG1        0.0000
     21 H          -0.4799   -2.5145    0.8095 H       1  LIG1        0.0000
     22 H          -1.8364   -0.5394   -0.8018 H       1  LIG1        0.0000
     23 H          -1.8222   -0.5477    0.8311 H       1  LIG1        0.0000
     24 H           4.4620   -0.0403   -0.0412 H       1  LIG1        0.0000
     25 H           3.8011   -1.2900    0.7761 H       1  LIG1        0.0000
     26 H           3.7857   -1.2829   -0.8568 H       1  LIG1        0.0000
     27 H           3.2190    1.9110   -0.0208 H       1  LIG1        0.0000
     28 H           2.8782    4.2260    2.2171 H       1  LIG1        0.0000
     29 H           2.4911    4.7361    4.5271 H       1  LIG1        0.0000
     30 H          -1.2101    4.2267    1.5114 H       1  LIG1        0.0000
@<TRIPOS>BOND
     1     1     2    1
     2     2     3    1
     3     3     4   ar
     4     4     5   ar
     5     5     6    1
     6     5     7   ar
     7     7     8   ar
     8     8     9    1
     9     9    10    1
    10    10    11   ar
    11    11    12   ar
    12    12    13   ar
    13    13    14    1
    14    13    15   ar
    15    15    16    1
    16    15    17   ar
    17    17    10   ar
    18     8    18   ar
    19    18     3   ar
    20     1    19    1
    21     1    20    1
    22     1    21    1
    23     2    22    1
    24     2    23    1
    25     6    24    1
    26     6    25    1
    27     6    26    1
    28     7    27    1
    29    11    28    1
    30    12    29    1
    31    17    30    1
