@<TRIPOS>MOLECULE

  52   55
SMALL
USER_CHARGES
@<TRIPOS>ATOM
   1 C1          -4.3760     2.7923     4.1533 C.3          1    LIG   0.0000
   2 C2          -3.1209     2.6292     3.3111 C.ar         1    LIG   0.0000
   3 C3          -2.4354     1.4183     3.3227 C.ar         1    LIG   0.0000
   4 C4          -1.2869     1.2622     2.5530 C.ar         1    LIG   0.0000
   5 C5          -0.8396     2.3283     1.7795 C.ar         1    LIG   0.0000
   6 N6           0.3150     2.1865     1.0000 N.pl3        1    LIG   0.0000
   7 C7           1.0000     1.0000     1.0000 C.2          1    LIG   0.0000
   8 C8           2.3259     1.0000     1.0000 C.2          1    LIG   0.0000
   9 C9           3.0353     2.2597     1.0726 C.2          1    LIG   0.0000
  10 O10          2.3913     3.2911     1.1873 O.2          1    LIG   0.0000
  11 N11          4.4311     2.2788     1.0041 N.am         1    LIG   0.0000
  12 C12          5.0862     3.5148     1.0564 C.ar         1    LIG   0.0000
  13 C13          5.3386     4.1987    -0.1281 C.ar         1    LIG   0.0000
  14 C14          5.9901     5.4263    -0.0712 C.ar         1    LIG   0.0000
  15 C15          6.3829     5.9616     1.1507 C.ar         1    LIG   0.0000
  16 C16          7.0920     7.3063     1.1609 C.3          1    LIG   0.0000
  17 C17          6.1245     5.2680     2.3296 C.ar         1    LIG   0.0000
  18 C18          6.5401     5.8241     3.6823 C.3          1    LIG   0.0000
  19 C19          5.4737     4.0394     2.2854 C.ar         1    LIG   0.0000
  20 C20          5.1757     1.0968     0.8807 C.2          1    LIG   0.0000
  21 O21          6.3927     1.1903     0.8115 O.2          1    LIG   0.0000
  22 C22          4.4989    -0.1863     0.8426 C.ar         1    LIG   0.0000
  23 C23          5.2125    -1.3749     0.7327 C.ar         1    LIG   0.0000
  24 C24          4.5447    -2.5930     0.6910 C.ar         1    LIG   0.0000
  25 C25          3.1563    -2.6247     0.7568 C.ar         1    LIG   0.0000
  26 C26          2.4329    -1.4447     0.8602 C.ar         1    LIG   0.0000
  27 C27          3.1047    -0.2266     0.8990 C.ar         1    LIG   0.0000
  28 C28         -1.5278     3.5370     1.7725 C.ar         1    LIG   0.0000
  29 O29         -1.0824     4.5638     1.0176 O.3          1    LIG   0.0000
  30 C30         -2.6765     3.6976     2.5397 C.ar         1    LIG   0.0000
  31 H           -4.5606     1.9412     4.6448 H            1    LIG   0.0000
  32 H           -4.2425     3.5344     4.8101 H            1    LIG   0.0000
  33 H           -5.1505     3.0086     3.5588 H            1    LIG   0.0000
  34 H           -2.7681     0.6605     3.8840 H            1    LIG   0.0000
  35 H           -0.7894     0.3947     2.5558 H            1    LIG   0.0000
  36 H            0.6395     2.9512     0.4433 H            1    LIG   0.0000
  37 H            0.5000     0.1340     1.0000 H            1    LIG   0.0000
  38 H            5.0562     3.8139    -1.0068 H            1    LIG   0.0000
  39 H            6.1775     5.9280    -0.9157 H            1    LIG   0.0000
  40 H            7.1838     7.6419     0.2234 H            1    LIG   0.0000
  41 H            6.5592     7.9600     1.6982 H            1    LIG   0.0000
  42 H            7.9995     7.2016     1.5678 H            1    LIG   0.0000
  43 H            6.2691     5.1857     4.4027 H            1    LIG   0.0000
  44 H            7.5323     5.9469     3.7016 H            1    LIG   0.0000
  45 H            6.0922     6.7055     3.8322 H            1    LIG   0.0000
  46 H            5.2859     3.5376     3.1297 H            1    LIG   0.0000
  47 H            6.2110    -1.3530     0.6835 H            1    LIG   0.0000
  48 H            5.0620    -3.4453     0.6138 H            1    LIG   0.0000
  49 H            2.6767    -3.5017     0.7296 H            1    LIG   0.0000
  50 H            1.4343    -1.4697     0.9064 H            1    LIG   0.0000
  51 H           -1.5775     5.4326     1.0129 H            1    LIG   0.0000
  52 H           -3.1738     4.5652     2.5367 H            1    LIG   0.0000
@<TRIPOS>BOND
   1        1        2 1
   2        2        3 ar
   3        3        4 ar
   4        4        5 ar
   5        5        6 1
   6        6        7 1
   7        7        8 2
   8        8        9 1
   9        9       10 2
  10        9       11 am
  11       11       12 1
  12       12       13 ar
  13       13       14 ar
  14       14       15 ar
  15       15       16 1
  16       15       17 ar
  17       17       18 1
  18       17       19 ar
  19       19       12 ar
  20       11       20 am
  21       20       21 2
  22       20       22 1
  23       22       23 ar
  24       23       24 ar
  25       24       25 ar
  26       25       26 ar
  27       26       27 ar
  28       27       22 ar
  29       27        8 1
  30        5       28 ar
  31       28       29 1
  32       28       30 ar
  33       30        2 ar
  34        1       31 1
  35        1       32 1
  36        1       33 1
  37        3       34 1
  38        4       35 1
  39        6       36 1
  40        7       37 1
  41       13       38 1
  42       14       39 1
  43       16       40 1
  44       16       41 1
  45       16       42 1
  46       18       43 1
  47       18       44 1
  48       18       45 1
  49       19       46 1
  50       23       47 1
  51       24       48 1
  52       25       49 1
  53       26       50 1
  54       29       51 1
  55       30       52 1

@<TRIPOS>MOLECULE

  52   55
SMALL
USER_CHARGES
@<TRIPOS>ATOM
   1 C1          -4.3666     2.7940     4.1669 C.3          1    LIG   0.0000
   2 C2          -3.1145     2.6299     3.3206 C.ar         1    LIG   0.0000
   3 C3          -2.7831     1.3764     2.8152 C.ar         1    LIG   0.0000
   4 C4          -1.6393     1.2200     2.0388 C.ar         1    LIG   0.0000
   5 C5          -0.8396     2.3283     1.7795 C.ar         1    LIG   0.0000
   6 N6           0.3150     2.1865     1.0000 N.pl3        1    LIG   0.0000
   7 C7           1.0000     1.0000     1.0000 C.2          1    LIG   0.0000
   8 C8           2.3259     1.0000     1.0000 C.2          1    LIG   0.0000
   9 C9           3.0353     2.2597     1.0726 C.2          1    LIG   0.0000
  10 O10          2.3913     3.2911     1.1873 O.2          1    LIG   0.0000
  11 N11          4.4311     2.2788     1.0041 N.am         1    LIG   0.0000
  12 C12          5.0862     3.5148     1.0564 C.ar         1    LIG   0.0000
  13 C13          5.3386     4.1987    -0.1281 C.ar         1    LIG   0.0000
  14 C14          5.9901     5.4263    -0.0712 C.ar         1    LIG   0.0000
  15 C15          6.3829     5.9616     1.1507 C.ar         1    LIG   0.0000
  16 C16          7.0920     7.3063     1.1609 C.3          1    LIG   0.0000
  17 C17          6.1245     5.2680     2.3296 C.ar         1    LIG   0.0000
  18 C18          6.5401     5.8241     3.6823 C.3          1    LIG   0.0000
  19 C19          5.4737     4.0394     2.2854 C.ar         1    LIG   0.0000
  20 C20          5.1757     1.0968     0.8807 C.2          1    LIG   0.0000
  21 O21          6.3927     1.1903     0.8115 O.2          1    LIG   0.0000
  22 C22          4.4989    -0.1863     0.8426 C.ar         1    LIG   0.0000
  23 C23          5.2125    -1.3749     0.7327 C.ar         1    LIG   0.0000
  24 C24          4.5447    -2.5930     0.6910 C.ar         1    LIG   0.0000
  25 C25          3.1563    -2.6247     0.7568 C.ar         1    LIG   0.0000
  26 C26          2.4329    -1.4447     0.8602 C.ar         1    LIG   0.0000
  27 C27          3.1047    -0.2266     0.8990 C.ar         1    LIG   0.0000
  28 C28         -1.1746     3.5788     2.2880 C.ar         1    LIG   0.0000
  29 O29         -0.3893     4.6461     2.0292 O.3          1    LIG   0.0000
  30 C30         -2.3172     3.7402     3.0641 C.ar         1    LIG   0.0000
  31 H           -4.8257     1.9103     4.2578 H            1    LIG   0.0000
  32 H           -4.1143     3.1332     5.0732 H            1    LIG   0.0000
  33 H           -4.9834     3.4464     3.7266 H            1    LIG   0.0000
  34 H           -3.3669     0.5883     3.0101 H            1    LIG   0.0000
  35 H           -1.3952     0.3224     1.6718 H            1    LIG   0.0000
  36 H            0.6395     2.9512     0.4433 H            1    LIG   0.0000
  37 H            0.5000     0.1340     1.0000 H            1    LIG   0.0000
  38 H            5.0562     3.8139    -1.0068 H            1    LIG   0.0000
  39 H            6.1775     5.9280    -0.9157 H            1    LIG   0.0000
  40 H            7.1838     7.6419     0.2234 H            1    LIG   0.0000
  41 H            6.5592     7.9600     1.6982 H            1    LIG   0.0000
  42 H            7.9995     7.2016     1.5678 H            1    LIG   0.0000
  43 H            6.2691     5.1857     4.4027 H            1    LIG   0.0000
  44 H            7.5323     5.9469     3.7016 H            1    LIG   0.0000
  45 H            6.0922     6.7055     3.8322 H            1    LIG   0.0000
  46 H            5.2859     3.5376     3.1297 H            1    LIG   0.0000
  47 H            6.2110    -1.3530     0.6835 H            1    LIG   0.0000
  48 H            5.0620    -3.4453     0.6138 H            1    LIG   0.0000
  49 H            2.6767    -3.5017     0.7296 H            1    LIG   0.0000
  50 H            1.4343    -1.4697     0.9064 H            1    LIG   0.0000
  51 H           -0.6306     5.5449     2.3950 H            1    LIG   0.0000
  52 H           -2.5610     4.6379     3.4311 H            1    LIG   0.0000
@<TRIPOS>BOND
   1        1        2 1
   2        2        3 ar
   3        3        4 ar
   4        4        5 ar
   5        5        6 1
   6        6        7 1
   7        7        8 2
   8        8        9 1
   9        9       10 2
  10        9       11 am
  11       11       12 1
  12       12       13 ar
  13       13       14 ar
  14       14       15 ar
  15       15       16 1
  16       15       17 ar
  17       17       18 1
  18       17       19 ar
  19       19       12 ar
  20       11       20 am
  21       20       21 2
  22       20       22 1
  23       22       23 ar
  24       23       24 ar
  25       24       25 ar
  26       25       26 ar
  27       26       27 ar
  28       27       22 ar
  29       27        8 1
  30        5       28 ar
  31       28       29 1
  32       28       30 ar
  33       30        2 ar
  34        1       31 1
  35        1       32 1
  36        1       33 1
  37        3       34 1
  38        4       35 1
  39        6       36 1
  40        7       37 1
  41       13       38 1
  42       14       39 1
  43       16       40 1
  44       16       41 1
  45       16       42 1
  46       18       43 1
  47       18       44 1
  48       18       45 1
  49       19       46 1
  50       23       47 1
  51       24       48 1
  52       25       49 1
  53       26       50 1
  54       29       51 1
  55       30       52 1

@<TRIPOS>MOLECULE

  52   55
SMALL
USER_CHARGES
@<TRIPOS>ATOM
   1 C1          -4.3844     2.7826     4.1426 C.3          1    LIG   0.0000
   2 C2          -3.1268     2.6228     3.3036 C.ar         1    LIG   0.0000
   3 C3          -2.1202     1.7605     3.7273 C.ar         1    LIG   0.0000
   4 C4          -0.9674     1.6088     2.9632 C.ar         1    LIG   0.0000
   5 C5          -0.8396     2.3283     1.7795 C.ar         1    LIG   0.0000
   6 N6           0.3150     2.1865     1.0000 N.pl3        1    LIG   0.0000
   7 C7           1.0000     1.0000     1.0000 C.2          1    LIG   0.0000
   8 C8           2.3259     1.0000     1.0000 C.2          1    LIG   0.0000
   9 C9           3.0353     2.2597     1.0726 C.2          1    LIG   0.0000
  10 O10          2.3913     3.2911     1.1873 O.2          1    LIG   0.0000
  11 N11          4.4311     2.2788     1.0041 N.am         1    LIG   0.0000
  12 C12          5.0862     3.5148     1.0564 C.ar         1    LIG   0.0000
  13 C13          5.3386     4.1987    -0.1281 C.ar         1    LIG   0.0000
  14 C14          5.9901     5.4263    -0.0712 C.ar         1    LIG   0.0000
  15 C15          6.3829     5.9616     1.1507 C.ar         1    LIG   0.0000
  16 C16          7.0920     7.3063     1.1609 C.3          1    LIG   0.0000
  17 C17          6.1245     5.2680     2.3296 C.ar         1    LIG   0.0000
  18 C18          6.5401     5.8241     3.6823 C.3          1    LIG   0.0000
  19 C19          5.4737     4.0394     2.2854 C.ar         1    LIG   0.0000
  20 C20          5.1757     1.0968     0.8807 C.2          1    LIG   0.0000
  21 O21          6.3927     1.1903     0.8115 O.2          1    LIG   0.0000
  22 C22          4.4989    -0.1863     0.8426 C.ar         1    LIG   0.0000
  23 C23          5.2125    -1.3749     0.7327 C.ar         1    LIG   0.0000
  24 C24          4.5447    -2.5930     0.6910 C.ar         1    LIG   0.0000
  25 C25          3.1563    -2.6247     0.7568 C.ar         1    LIG   0.0000
  26 C26          2.4329    -1.4447     0.8602 C.ar         1    LIG   0.0000
  27 C27          3.1047    -0.2266     0.8990 C.ar         1    LIG   0.0000
  28 C28         -1.8481     3.1899     1.3611 C.ar         1    LIG   0.0000
  29 O29         -1.7109     3.8827     0.2105 O.3          1    LIG   0.0000
  30 C30         -3.0024     3.3444     2.1212 C.ar         1    LIG   0.0000
  31 H           -4.3200     2.2015     4.9539 H            1    LIG   0.0000
  32 H           -4.4786     3.7377     4.4234 H            1    LIG   0.0000
  33 H           -5.1818     2.5137     3.6024 H            1    LIG   0.0000
  34 H           -2.2253     1.2500     4.5807 H            1    LIG   0.0000
  35 H           -0.2402     0.9904     3.2610 H            1    LIG   0.0000
  36 H            0.6395     2.9512     0.4433 H            1    LIG   0.0000
  37 H            0.5000     0.1340     1.0000 H            1    LIG   0.0000
  38 H            5.0562     3.8139    -1.0068 H            1    LIG   0.0000
  39 H            6.1775     5.9280    -0.9157 H            1    LIG   0.0000
  40 H            7.1838     7.6419     0.2234 H            1    LIG   0.0000
  41 H            6.5592     7.9600     1.6982 H            1    LIG   0.0000
  42 H            7.9995     7.2016     1.5678 H            1    LIG   0.0000
  43 H            6.2691     5.1857     4.4027 H            1    LIG   0.0000
  44 H            7.5323     5.9469     3.7016 H            1    LIG   0.0000
  45 H            6.0922     6.7055     3.8322 H            1    LIG   0.0000
  46 H            5.2859     3.5376     3.1297 H            1    LIG   0.0000
  47 H            6.2110    -1.3530     0.6835 H            1    LIG   0.0000
  48 H            5.0620    -3.4453     0.6138 H            1    LIG   0.0000
  49 H            2.6767    -3.5017     0.7296 H            1    LIG   0.0000
  50 H            1.4343    -1.4697     0.9064 H            1    LIG   0.0000
  51 H           -2.4364     4.5020    -0.0898 H            1    LIG   0.0000
  52 H           -3.7295     3.9629     1.8232 H            1    LIG   0.0000
@<TRIPOS>BOND
   1        1        2 1
   2        2        3 ar
   3        3        4 ar
   4        4        5 ar
   5        5        6 1
   6        6        7 1
   7        7        8 2
   8        8        9 1
   9        9       10 2
  10        9       11 am
  11       11       12 1
  12       12       13 ar
  13       13       14 ar
  14       14       15 ar
  15       15       16 1
  16       15       17 ar
  17       17       18 1
  18       17       19 ar
  19       19       12 ar
  20       11       20 am
  21       20       21 2
  22       20       22 1
  23       22       23 ar
  24       23       24 ar
  25       24       25 ar
  26       25       26 ar
  27       26       27 ar
  28       27       22 ar
  29       27        8 1
  30        5       28 ar
  31       28       29 1
  32       28       30 ar
  33       30        2 ar
  34        1       31 1
  35        1       32 1
  36        1       33 1
  37        3       34 1
  38        4       35 1
  39        6       36 1
  40        7       37 1
  41       13       38 1
  42       14       39 1
  43       16       40 1
  44       16       41 1
  45       16       42 1
  46       18       43 1
  47       18       44 1
  48       18       45 1
  49       19       46 1
  50       23       47 1
  51       24       48 1
  52       25       49 1
  53       26       50 1
  54       29       51 1
  55       30       52 1

@<TRIPOS>MOLECULE

  52   55
SMALL
USER_CHARGES
@<TRIPOS>ATOM
   1 C1          -4.3895     2.7675     4.1378 C.3          1    LIG   0.0000
   2 C2          -3.1305     2.6126     3.3000 C.ar         1    LIG   0.0000
   3 C3          -1.9220     2.3114     3.9206 C.ar         1    LIG   0.0000
   4 C4          -0.7665     2.1670     3.1593 C.ar         1    LIG   0.0000
   5 C5          -0.8396     2.3283     1.7795 C.ar         1    LIG   0.0000
   6 N6           0.3150     2.1865     1.0000 N.pl3        1    LIG   0.0000
   7 C7           1.0000     1.0000     1.0000 C.2          1    LIG   0.0000
   8 C8           2.3259     1.0000     1.0000 C.2          1    LIG   0.0000
   9 C9           3.0353     2.2597     1.0726 C.2          1    LIG   0.0000
  10 O10          2.3913     3.2911     1.1873 O.2          1    LIG   0.0000
  11 N11          4.4311     2.2788     1.0041 N.am         1    LIG   0.0000
  12 C12          5.0862     3.5148     1.0564 C.ar         1    LIG   0.0000
  13 C13          5.3386     4.1987    -0.1281 C.ar         1    LIG   0.0000
  14 C14          5.9901     5.4263    -0.0712 C.ar         1    LIG   0.0000
  15 C15          6.3829     5.9616     1.1507 C.ar         1    LIG   0.0000
  16 C16          7.0920     7.3063     1.1609 C.3          1    LIG   0.0000
  17 C17          6.1245     5.2680     2.3296 C.ar         1    LIG   0.0000
  18 C18          6.5401     5.8241     3.6823 C.3          1    LIG   0.0000
  19 C19          5.4737     4.0394     2.2854 C.ar         1    LIG   0.0000
  20 C20          5.1757     1.0968     0.8807 C.2          1    LIG   0.0000
  21 O21          6.3927     1.1903     0.8115 O.2          1    LIG   0.0000
  22 C22          4.4989    -0.1863     0.8426 C.ar         1    LIG   0.0000
  23 C23          5.2125    -1.3749     0.7327 C.ar         1    LIG   0.0000
  24 C24          4.5447    -2.5930     0.6910 C.ar         1    LIG   0.0000
  25 C25          3.1563    -2.6247     0.7568 C.ar         1    LIG   0.0000
  26 C26          2.4329    -1.4447     0.8602 C.ar         1    LIG   0.0000
  27 C27          3.1047    -0.2266     0.8990 C.ar         1    LIG   0.0000
  28 C28         -2.0498     2.6306     1.1642 C.ar         1    LIG   0.0000
  29 O29         -2.1066     2.7851    -0.1758 O.3          1    LIG   0.0000
  30 C30         -3.2075     2.7754     1.9210 C.ar         1    LIG   0.0000
  31 H           -4.1684     2.6212     5.1020 H            1    LIG   0.0000
  32 H           -4.7593     3.6887     4.0167 H            1    LIG   0.0000
  33 H           -5.0690     2.0945     3.8458 H            1    LIG   0.0000
  34 H           -1.8840     2.1988     4.9135 H            1    LIG   0.0000
  35 H            0.1054     1.9499     3.5983 H            1    LIG   0.0000
  36 H            0.6395     2.9512     0.4433 H            1    LIG   0.0000
  37 H            0.5000     0.1340     1.0000 H            1    LIG   0.0000
  38 H            5.0562     3.8139    -1.0068 H            1    LIG   0.0000
  39 H            6.1775     5.9280    -0.9157 H            1    LIG   0.0000
  40 H            7.1838     7.6419     0.2234 H            1    LIG   0.0000
  41 H            6.5592     7.9600     1.6982 H            1    LIG   0.0000
  42 H            7.9995     7.2016     1.5678 H            1    LIG   0.0000
  43 H            6.2691     5.1857     4.4027 H            1    LIG   0.0000
  44 H            7.5323     5.9469     3.7016 H            1    LIG   0.0000
  45 H            6.0922     6.7055     3.8322 H            1    LIG   0.0000
  46 H            5.2859     3.5376     3.1297 H            1    LIG   0.0000
  47 H            6.2110    -1.3530     0.6835 H            1    LIG   0.0000
  48 H            5.0620    -3.4453     0.6138 H            1    LIG   0.0000
  49 H            2.6767    -3.5017     0.7296 H            1    LIG   0.0000
  50 H            1.4343    -1.4697     0.9064 H            1    LIG   0.0000
  51 H           -2.9769     3.0024    -0.6176 H            1    LIG   0.0000
  52 H           -4.0793     2.9924     1.4817 H            1    LIG   0.0000
@<TRIPOS>BOND
   1        1        2 1
   2        2        3 ar
   3        3        4 ar
   4        4        5 ar
   5        5        6 1
   6        6        7 1
   7        7        8 2
   8        8        9 1
   9        9       10 2
  10        9       11 am
  11       11       12 1
  12       12       13 ar
  13       13       14 ar
  14       14       15 ar
  15       15       16 1
  16       15       17 ar
  17       17       18 1
  18       17       19 ar
  19       19       12 ar
  20       11       20 am
  21       20       21 2
  22       20       22 1
  23       22       23 ar
  24       23       24 ar
  25       24       25 ar
  26       25       26 ar
  27       26       27 ar
  28       27       22 ar
  29       27        8 1
  30        5       28 ar
  31       28       29 1
  32       28       30 ar
  33       30        2 ar
  34        1       31 1
  35        1       32 1
  36        1       33 1
  37        3       34 1
  38        4       35 1
  39        6       36 1
  40        7       37 1
  41       13       38 1
  42       14       39 1
  43       16       40 1
  44       16       41 1
  45       16       42 1
  46       18       43 1
  47       18       44 1
  48       18       45 1
  49       19       46 1
  50       23       47 1
  51       24       48 1
  52       25       49 1
  53       26       50 1
  54       29       51 1
  55       30       52 1

@<TRIPOS>MOLECULE

  52   55
SMALL
USER_CHARGES
@<TRIPOS>ATOM
   1 C1          -4.3548     2.7572     4.1911 C.3          1    LIG   0.0000
   2 C2          -3.1069     2.6040     3.3364 C.ar         1    LIG   0.0000
   3 C3          -3.1916     2.7672     1.9571 C.ar         1    LIG   0.0000
   4 C4          -2.0529     2.6298     1.1695 C.ar         1    LIG   0.0000
   5 C5          -0.8396     2.3283     1.7795 C.ar         1    LIG   0.0000
   6 N6           0.3150     2.1865     1.0000 N.pl3        1    LIG   0.0000
   7 C7           1.0000     1.0000     1.0000 C.2          1    LIG   0.0000
   8 C8           2.3259     1.0000     1.0000 C.2          1    LIG   0.0000
   9 C9           3.0353     2.2597     1.0726 C.2          1    LIG   0.0000
  10 O10          2.3913     3.2911     1.1873 O.2          1    LIG   0.0000
  11 N11          4.4311     2.2788     1.0041 N.am         1    LIG   0.0000
  12 C12          5.0862     3.5148     1.0564 C.ar         1    LIG   0.0000
  13 C13          5.3386     4.1987    -0.1281 C.ar         1    LIG   0.0000
  14 C14          5.9901     5.4263    -0.0712 C.ar         1    LIG   0.0000
  15 C15          6.3829     5.9616     1.1507 C.ar         1    LIG   0.0000
  16 C16          7.0920     7.3063     1.1609 C.3          1    LIG   0.0000
  17 C17          6.1245     5.2680     2.3296 C.ar         1    LIG   0.0000
  18 C18          6.5401     5.8241     3.6823 C.3          1    LIG   0.0000
  19 C19          5.4737     4.0394     2.2854 C.ar         1    LIG   0.0000
  20 C20          5.1757     1.0968     0.8807 C.2          1    LIG   0.0000
  21 O21          6.3927     1.1903     0.8115 O.2          1    LIG   0.0000
  22 C22          4.4989    -0.1863     0.8426 C.ar         1    LIG   0.0000
  23 C23          5.2125    -1.3749     0.7327 C.ar         1    LIG   0.0000
  24 C24          4.5447    -2.5930     0.6910 C.ar         1    LIG   0.0000
  25 C25          3.1563    -2.6247     0.7568 C.ar         1    LIG   0.0000
  26 C26          2.4329    -1.4447     0.8602 C.ar         1    LIG   0.0000
  27 C27          3.1047    -0.2266     0.8990 C.ar         1    LIG   0.0000
  28 C28         -0.7606     2.1650     3.1585 C.ar         1    LIG   0.0000
  29 O29          0.4233     1.8720     3.7376 O.3          1    LIG   0.0000
  30 C30         -1.8959     2.3020     3.9499 C.ar         1    LIG   0.0000
  31 H           -5.1359     2.9723     3.6050 H            1    LIG   0.0000
  32 H           -4.5305     1.9030     4.6805 H            1    LIG   0.0000
  33 H           -4.2188     3.4970     4.8500 H            1    LIG   0.0000
  34 H           -4.0706     2.9831     1.5320 H            1    LIG   0.0000
  35 H           -2.1060     2.7462     0.1778 H            1    LIG   0.0000
  36 H            0.6395     2.9512     0.4433 H            1    LIG   0.0000
  37 H            0.5000     0.1340     1.0000 H            1    LIG   0.0000
  38 H            5.0562     3.8139    -1.0068 H            1    LIG   0.0000
  39 H            6.1775     5.9280    -0.9157 H            1    LIG   0.0000
  40 H            7.1838     7.6419     0.2234 H            1    LIG   0.0000
  41 H            6.5592     7.9600     1.6982 H            1    LIG   0.0000
  42 H            7.9995     7.2016     1.5678 H            1    LIG   0.0000
  43 H            6.2691     5.1857     4.4027 H            1    LIG   0.0000
  44 H            7.5323     5.9469     3.7016 H            1    LIG   0.0000
  45 H            6.0922     6.7055     3.8322 H            1    LIG   0.0000
  46 H            5.2859     3.5376     3.1297 H            1    LIG   0.0000
  47 H            6.2110    -1.3530     0.6835 H            1    LIG   0.0000
  48 H            5.0620    -3.4453     0.6138 H            1    LIG   0.0000
  49 H            2.6767    -3.5017     0.7296 H            1    LIG   0.0000
  50 H            1.4343    -1.4697     0.9064 H            1    LIG   0.0000
  51 H            0.4795     1.7547     4.7291 H            1    LIG   0.0000
  52 H           -1.8425     2.1854     4.9416 H            1    LIG   0.0000
@<TRIPOS>BOND
   1        1        2 1
   2        2        3 ar
   3        3        4 ar
   4        4        5 ar
   5        5        6 1
   6        6        7 1
   7        7        8 2
   8        8        9 1
   9        9       10 2
  10        9       11 am
  11       11       12 1
  12       12       13 ar
  13       13       14 ar
  14       14       15 ar
  15       15       16 1
  16       15       17 ar
  17       17       18 1
  18       17       19 ar
  19       19       12 ar
  20       11       20 am
  21       20       21 2
  22       20       22 1
  23       22       23 ar
  24       23       24 ar
  25       24       25 ar
  26       25       26 ar
  27       26       27 ar
  28       27       22 ar
  29       27        8 1
  30        5       28 ar
  31       28       29 1
  32       28       30 ar
  33       30        2 ar
  34        1       31 1
  35        1       32 1
  36        1       33 1
  37        3       34 1
  38        4       35 1
  39        6       36 1
  40        7       37 1
  41       13       38 1
  42       14       39 1
  43       16       40 1
  44       16       41 1
  45       16       42 1
  46       18       43 1
  47       18       44 1
  48       18       45 1
  49       19       46 1
  50       23       47 1
  51       24       48 1
  52       25       49 1
  53       26       50 1
  54       29       51 1
  55       30       52 1

@<TRIPOS>MOLECULE

  52   55
SMALL
USER_CHARGES
@<TRIPOS>ATOM
   1 C1          -4.3856     2.7375     4.1490 C.3          1    LIG   0.0000
   2 C2          -3.1283     2.5918     3.3071 C.ar         1    LIG   0.0000
   3 C3          -2.0434     3.4324     3.5367 C.ar         1    LIG   0.0000
   4 C4          -0.8892     3.3032     2.7706 C.ar         1    LIG   0.0000
   5 C5          -0.8396     2.3283     1.7795 C.ar         1    LIG   0.0000
   6 N6           0.3150     2.1865     1.0000 N.pl3        1    LIG   0.0000
   7 C7           1.0000     1.0000     1.0000 C.2          1    LIG   0.0000
   8 C8           2.3259     1.0000     1.0000 C.2          1    LIG   0.0000
   9 C9           3.0353     2.2597     1.0726 C.2          1    LIG   0.0000
  10 O10          2.3913     3.2911     1.1873 O.2          1    LIG   0.0000
  11 N11          4.4311     2.2788     1.0041 N.am         1    LIG   0.0000
  12 C12          5.0862     3.5148     1.0564 C.ar         1    LIG   0.0000
  13 C13          5.3386     4.1987    -0.1281 C.ar         1    LIG   0.0000
  14 C14          5.9901     5.4263    -0.0712 C.ar         1    LIG   0.0000
  15 C15          6.3829     5.9616     1.1507 C.ar         1    LIG   0.0000
  16 C16          7.0920     7.3063     1.1609 C.3          1    LIG   0.0000
  17 C17          6.1245     5.2680     2.3296 C.ar         1    LIG   0.0000
  18 C18          6.5401     5.8241     3.6823 C.3          1    LIG   0.0000
  19 C19          5.4737     4.0394     2.2854 C.ar         1    LIG   0.0000
  20 C20          5.1757     1.0968     0.8807 C.2          1    LIG   0.0000
  21 O21          6.3927     1.1903     0.8115 O.2          1    LIG   0.0000
  22 C22          4.4989    -0.1863     0.8426 C.ar         1    LIG   0.0000
  23 C23          5.2125    -1.3749     0.7327 C.ar         1    LIG   0.0000
  24 C24          4.5447    -2.5930     0.6910 C.ar         1    LIG   0.0000
  25 C25          3.1563    -2.6247     0.7568 C.ar         1    LIG   0.0000
  26 C26          2.4329    -1.4447     0.8602 C.ar         1    LIG   0.0000
  27 C27          3.1047    -0.2266     0.8990 C.ar         1    LIG   0.0000
  28 C28         -1.9272     1.4914     1.5531 C.ar         1    LIG   0.0000
  29 O29         -1.8659     0.5498     0.5875 O.3          1    LIG   0.0000
  30 C30         -3.0827     1.6165     2.3167 C.ar         1    LIG   0.0000
  31 H           -4.2600     3.4767     4.8107 H            1    LIG   0.0000
  32 H           -5.1616     2.9501     3.5551 H            1    LIG   0.0000
  33 H           -4.5624     1.8816     4.6349 H            1    LIG   0.0000
  34 H           -2.0933     4.1292     4.2523 H            1    LIG   0.0000
  35 H           -0.1055     3.9033     2.9304 H            1    LIG   0.0000
  36 H            0.6395     2.9512     0.4433 H            1    LIG   0.0000
  37 H            0.5000     0.1340     1.0000 H            1    LIG   0.0000
  38 H            5.0562     3.8139    -1.0068 H            1    LIG   0.0000
  39 H            6.1775     5.9280    -0.9157 H            1    LIG   0.0000
  40 H            7.1838     7.6419     0.2234 H            1    LIG   0.0000
  41 H            6.5592     7.9600     1.6982 H            1    LIG   0.0000
  42 H            7.9995     7.2016     1.5678 H            1    LIG   0.0000
  43 H            6.2691     5.1857     4.4027 H            1    LIG   0.0000
  44 H            7.5323     5.9469     3.7016 H            1    LIG   0.0000
  45 H            6.0922     6.7055     3.8322 H            1    LIG   0.0000
  46 H            5.2859     3.5376     3.1297 H            1    LIG   0.0000
  47 H            6.2110    -1.3530     0.6835 H            1    LIG   0.0000
  48 H            5.0620    -3.4453     0.6138 H            1    LIG   0.0000
  49 H            2.6767    -3.5017     0.7296 H            1    LIG   0.0000
  50 H            1.4343    -1.4697     0.9064 H            1    LIG   0.0000
  51 H           -2.6481    -0.0516     0.4252 H            1    LIG   0.0000
  52 H           -3.8664     1.0162     2.1567 H            1    LIG   0.0000
@<TRIPOS>BOND
   1        1        2 1
   2        2        3 ar
   3        3        4 ar
   4        4        5 ar
   5        5        6 1
   6        6        7 1
   7        7        8 2
   8        8        9 1
   9        9       10 2
  10        9       11 am
  11       11       12 1
  12       12       13 ar
  13       13       14 ar
  14       14       15 ar
  15       15       16 1
  16       15       17 ar
  17       17       18 1
  18       17       19 ar
  19       19       12 ar
  20       11       20 am
  21       20       21 2
  22       20       22 1
  23       22       23 ar
  24       23       24 ar
  25       24       25 ar
  26       25       26 ar
  27       26       27 ar
  28       27       22 ar
  29       27        8 1
  30        5       28 ar
  31       28       29 1
  32       28       30 ar
  33       30        2 ar
  34        1       31 1
  35        1       32 1
  36        1       33 1
  37        3       34 1
  38        4       35 1
  39        6       36 1
  40        7       37 1
  41       13       38 1
  42       14       39 1
  43       16       40 1
  44       16       41 1
  45       16       42 1
  46       18       43 1
  47       18       44 1
  48       18       45 1
  49       19       46 1
  50       23       47 1
  51       24       48 1
  52       25       49 1
  53       26       50 1
  54       29       51 1
  55       30       52 1

@<TRIPOS>MOLECULE

  52   55
SMALL
USER_CHARGES
@<TRIPOS>ATOM
   1 C1          -4.3586     2.7872     4.1799 C.3          1    LIG   0.0000
   2 C2          -3.1092     2.6249     3.3293 C.ar         1    LIG   0.0000
   3 C3          -3.0702     1.6462     2.3409 C.ar         1    LIG   0.0000
   4 C4          -1.9302     1.4936     1.5582 C.ar         1    LIG   0.0000
   5 C5          -0.8396     2.3283     1.7795 C.ar         1    LIG   0.0000
   6 N6           0.3150     2.1865     1.0000 N.pl3        1    LIG   0.0000
   7 C7           1.0000     1.0000     1.0000 C.2          1    LIG   0.0000
   8 C8           2.3259     1.0000     1.0000 C.2          1    LIG   0.0000
   9 C9           3.0353     2.2597     1.0726 C.2          1    LIG   0.0000
  10 O10          2.3913     3.2911     1.1873 O.2          1    LIG   0.0000
  11 N11          4.4311     2.2788     1.0041 N.am         1    LIG   0.0000
  12 C12          5.0862     3.5148     1.0564 C.ar         1    LIG   0.0000
  13 C13          5.3386     4.1987    -0.1281 C.ar         1    LIG   0.0000
  14 C14          5.9901     5.4263    -0.0712 C.ar         1    LIG   0.0000
  15 C15          6.3829     5.9616     1.1507 C.ar         1    LIG   0.0000
  16 C16          7.0920     7.3063     1.1609 C.3          1    LIG   0.0000
  17 C17          6.1245     5.2680     2.3296 C.ar         1    LIG   0.0000
  18 C18          6.5401     5.8241     3.6823 C.3          1    LIG   0.0000
  19 C19          5.4737     4.0394     2.2854 C.ar         1    LIG   0.0000
  20 C20          5.1757     1.0968     0.8807 C.2          1    LIG   0.0000
  21 O21          6.3927     1.1903     0.8115 O.2          1    LIG   0.0000
  22 C22          4.4989    -0.1863     0.8426 C.ar         1    LIG   0.0000
  23 C23          5.2125    -1.3749     0.7327 C.ar         1    LIG   0.0000
  24 C24          4.5447    -2.5930     0.6910 C.ar         1    LIG   0.0000
  25 C25          3.1563    -2.6247     0.7568 C.ar         1    LIG   0.0000
  26 C26          2.4329    -1.4447     0.8602 C.ar         1    LIG   0.0000
  27 C27          3.1047    -0.2266     0.8990 C.ar         1    LIG   0.0000
  28 C28         -0.8832     3.3042     2.7696 C.ar         1    LIG   0.0000
  29 O29          0.1826     4.1073     2.9742 O.3          1    LIG   0.0000
  30 C30         -2.0207     3.4609     3.5541 C.ar         1    LIG   0.0000
  31 H           -5.0443     2.1168     3.8963 H            1    LIG   0.0000
  32 H           -4.1281     2.6416     5.1420 H            1    LIG   0.0000
  33 H           -4.7254     3.7099     4.0609 H            1    LIG   0.0000
  34 H           -3.8614     1.0527     2.1933 H            1    LIG   0.0000
  35 H           -1.8952     0.7928     0.8456 H            1    LIG   0.0000
  36 H            0.6395     2.9512     0.4433 H            1    LIG   0.0000
  37 H            0.5000     0.1340     1.0000 H            1    LIG   0.0000
  38 H            5.0562     3.8139    -1.0068 H            1    LIG   0.0000
  39 H            6.1775     5.9280    -0.9157 H            1    LIG   0.0000
  40 H            7.1838     7.6419     0.2234 H            1    LIG   0.0000
  41 H            6.5592     7.9600     1.6982 H            1    LIG   0.0000
  42 H            7.9995     7.2016     1.5678 H            1    LIG   0.0000
  43 H            6.2691     5.1857     4.4027 H            1    LIG   0.0000
  44 H            7.5323     5.9469     3.7016 H            1    LIG   0.0000
  45 H            6.0922     6.7055     3.8322 H            1    LIG   0.0000
  46 H            5.2859     3.5376     3.1297 H            1    LIG   0.0000
  47 H            6.2110    -1.3530     0.6835 H            1    LIG   0.0000
  48 H            5.0620    -3.4453     0.6138 H            1    LIG   0.0000
  49 H            2.6767    -3.5017     0.7296 H            1    LIG   0.0000
  50 H            1.4343    -1.4697     0.9064 H            1    LIG   0.0000
  51 H            0.1507     4.8088     3.6863 H            1    LIG   0.0000
  52 H           -2.0554     4.1617     4.2667 H            1    LIG   0.0000
@<TRIPOS>BOND
   1        1        2 1
   2        2        3 ar
   3        3        4 ar
   4        4        5 ar
   5        5        6 1
   6        6        7 1
   7        7        8 2
   8        8        9 1
   9        9       10 2
  10        9       11 am
  11       11       12 1
  12       12       13 ar
  13       13       14 ar
  14       14       15 ar
  15       15       16 1
  16       15       17 ar
  17       17       18 1
  18       17       19 ar
  19       19       12 ar
  20       11       20 am
  21       20       21 2
  22       20       22 1
  23       22       23 ar
  24       23       24 ar
  25       24       25 ar
  26       25       26 ar
  27       26       27 ar
  28       27       22 ar
  29       27        8 1
  30        5       28 ar
  31       28       29 1
  32       28       30 ar
  33       30        2 ar
  34        1       31 1
  35        1       32 1
  36        1       33 1
  37        3       34 1
  38        4       35 1
  39        6       36 1
  40        7       37 1
  41       13       38 1
  42       14       39 1
  43       16       40 1
  44       16       41 1
  45       16       42 1
  46       18       43 1
  47       18       44 1
  48       18       45 1
  49       19       46 1
  50       23       47 1
  51       24       48 1
  52       25       49 1
  53       26       50 1
  54       29       51 1
  55       30       52 1

@<TRIPOS>MOLECULE

  52   55
SMALL
USER_CHARGES
@<TRIPOS>ATOM
   1 C1          -4.3760     2.7923     4.1533 C.3          1    LIG   0.0000
   2 C2          -3.1209     2.6292     3.3111 C.ar         1    LIG   0.0000
   3 C3          -2.4354     1.4183     3.3227 C.ar         1    LIG   0.0000
   4 C4          -1.2869     1.2622     2.5530 C.ar         1    LIG   0.0000
   5 C5          -0.8396     2.3283     1.7795 C.ar         1    LIG   0.0000
   6 N6           0.3150     2.1865     1.0000 N.pl3        1    LIG   0.0000
   7 C7           1.0000     1.0000     1.0000 C.2          1    LIG   0.0000
   8 C8           2.3259     1.0000     1.0000 C.2          1    LIG   0.0000
   9 C9           3.0353     2.2597     1.0726 C.2          1    LIG   0.0000
  10 O10          2.3913     3.2911     1.1873 O.2          1    LIG   0.0000
  11 N11          4.4311     2.2788     1.0041 N.am         1    LIG   0.0000
  12 C12          5.0862     3.5148     1.0564 C.ar         1    LIG   0.0000
  13 C13          5.4680     4.0276     2.2916 C.ar         1    LIG   0.0000
  14 C14          6.1184     5.2562     2.3388 C.ar         1    LIG   0.0000
  15 C15          6.3827     5.9609     1.1695 C.ar         1    LIG   0.0000
  16 C16          7.0958     7.2995     1.2729 C.3          1    LIG   0.0000
  17 C17          5.9961     5.4373    -0.0611 C.ar         1    LIG   0.0000
  18 C18          6.2694     6.1811    -1.3586 C.3          1    LIG   0.0000
  19 C19          5.3450     4.2096    -0.1209 C.ar         1    LIG   0.0000
  20 C20          5.1757     1.0968     0.8807 C.2          1    LIG   0.0000
  21 O21          6.3927     1.1903     0.8115 O.2          1    LIG   0.0000
  22 C22          4.4989    -0.1863     0.8426 C.ar         1    LIG   0.0000
  23 C23          5.2125    -1.3749     0.7327 C.ar         1    LIG   0.0000
  24 C24          4.5447    -2.5930     0.6910 C.ar         1    LIG   0.0000
  25 C25          3.1563    -2.6247     0.7568 C.ar         1    LIG   0.0000
  26 C26          2.4329    -1.4447     0.8602 C.ar         1    LIG   0.0000
  27 C27          3.1047    -0.2266     0.8990 C.ar         1    LIG   0.0000
  28 C28         -1.5278     3.5370     1.7725 C.ar         1    LIG   0.0000
  29 O29         -1.0824     4.5638     1.0176 O.3          1    LIG   0.0000
  30 C30         -2.6765     3.6976     2.5397 C.ar         1    LIG   0.0000
  31 H           -4.5606     1.9412     4.6448 H            1    LIG   0.0000
  32 H           -4.2425     3.5344     4.8101 H            1    LIG   0.0000
  33 H           -5.1505     3.0086     3.5588 H            1    LIG   0.0000
  34 H           -2.7681     0.6605     3.8840 H            1    LIG   0.0000
  35 H           -0.7894     0.3947     2.5558 H            1    LIG   0.0000
  36 H            0.6395     2.9512     0.4433 H            1    LIG   0.0000
  37 H            0.5000     0.1340     1.0000 H            1    LIG   0.0000
  38 H            5.2780     3.5209     3.1326 H            1    LIG   0.0000
  39 H            6.3980     5.6358     3.2207 H            1    LIG   0.0000
  40 H            7.2887     7.5011     2.2332 H            1    LIG   0.0000
  41 H            7.9543     7.2603     0.7616 H            1    LIG   0.0000
  42 H            6.5135     8.0177     0.8920 H            1    LIG   0.0000
  43 H            5.9194     5.6478    -2.1287 H            1    LIG   0.0000
  44 H            5.8139     7.0710    -1.3350 H            1    LIG   0.0000
  45 H            7.2548     6.3138    -1.4656 H            1    LIG   0.0000
  46 H            5.0653     3.8296    -1.0026 H            1    LIG   0.0000
  47 H            6.2110    -1.3530     0.6835 H            1    LIG   0.0000
  48 H            5.0620    -3.4453     0.6138 H            1    LIG   0.0000
  49 H            2.6767    -3.5017     0.7296 H            1    LIG   0.0000
  50 H            1.4343    -1.4697     0.9064 H            1    LIG   0.0000
  51 H           -1.5775     5.4326     1.0129 H            1    LIG   0.0000
  52 H           -3.1738     4.5652     2.5367 H            1    LIG   0.0000
@<TRIPOS>BOND
   1        1        2 1
   2        2        3 ar
   3        3        4 ar
   4        4        5 ar
   5        5        6 1
   6        6        7 1
   7        7        8 2
   8        8        9 1
   9        9       10 2
  10        9       11 am
  11       11       12 1
  12       12       13 ar
  13       13       14 ar
  14       14       15 ar
  15       15       16 1
  16       15       17 ar
  17       17       18 1
  18       17       19 ar
  19       19       12 ar
  20       11       20 am
  21       20       21 2
  22       20       22 1
  23       22       23 ar
  24       23       24 ar
  25       24       25 ar
  26       25       26 ar
  27       26       27 ar
  28       27       22 ar
  29       27        8 1
  30        5       28 ar
  31       28       29 1
  32       28       30 ar
  33       30        2 ar
  34        1       31 1
  35        1       32 1
  36        1       33 1
  37        3       34 1
  38        4       35 1
  39        6       36 1
  40        7       37 1
  41       13       38 1
  42       14       39 1
  43       16       40 1
  44       16       41 1
  45       16       42 1
  46       18       43 1
  47       18       44 1
  48       18       45 1
  49       19       46 1
  50       23       47 1
  51       24       48 1
  52       25       49 1
  53       26       50 1
  54       29       51 1
  55       30       52 1

@<TRIPOS>MOLECULE

  52   55
SMALL
USER_CHARGES
@<TRIPOS>ATOM
   1 C1          -4.3666     2.7940     4.1669 C.3          1    LIG   0.0000
   2 C2          -3.1145     2.6299     3.3206 C.ar         1    LIG   0.0000
   3 C3          -2.7831     1.3764     2.8152 C.ar         1    LIG   0.0000
   4 C4          -1.6393     1.2200     2.0388 C.ar         1    LIG   0.0000
   5 C5          -0.8396     2.3283     1.7795 C.ar         1    LIG   0.0000
   6 N6           0.3150     2.1865     1.0000 N.pl3        1    LIG   0.0000
   7 C7           1.0000     1.0000     1.0000 C.2          1    LIG   0.0000
   8 C8           2.3259     1.0000     1.0000 C.2          1    LIG   0.0000
   9 C9           3.0353     2.2597     1.0726 C.2          1    LIG   0.0000
  10 O10          2.3913     3.2911     1.1873 O.2          1    LIG   0.0000
  11 N11          4.4311     2.2788     1.0041 N.am         1    LIG   0.0000
  12 C12          5.0862     3.5148     1.0564 C.ar         1    LIG   0.0000
  13 C13          5.4680     4.0276     2.2916 C.ar         1    LIG   0.0000
  14 C14          6.1184     5.2562     2.3388 C.ar         1    LIG   0.0000
  15 C15          6.3827     5.9609     1.1695 C.ar         1    LIG   0.0000
  16 C16          7.0958     7.2995     1.2729 C.3          1    LIG   0.0000
  17 C17          5.9961     5.4373    -0.0611 C.ar         1    LIG   0.0000
  18 C18          6.2694     6.1811    -1.3586 C.3          1    LIG   0.0000
  19 C19          5.3450     4.2096    -0.1209 C.ar         1    LIG   0.0000
  20 C20          5.1757     1.0968     0.8807 C.2          1    LIG   0.0000
  21 O21          6.3927     1.1903     0.8115 O.2          1    LIG   0.0000
  22 C22          4.4989    -0.1863     0.8426 C.ar         1    LIG   0.0000
  23 C23          5.2125    -1.3749     0.7327 C.ar         1    LIG   0.0000
  24 C24          4.5447    -2.5930     0.6910 C.ar         1    LIG   0.0000
  25 C25          3.1563    -2.6247     0.7568 C.ar         1    LIG   0.0000
  26 C26          2.4329    -1.4447     0.8602 C.ar         1    LIG   0.0000
  27 C27          3.1047    -0.2266     0.8990 C.ar         1    LIG   0.0000
  28 C28         -1.1746     3.5788     2.2880 C.ar         1    LIG   0.0000
  29 O29         -0.3893     4.6461     2.0292 O.3          1    LIG   0.0000
  30 C30         -2.3172     3.7402     3.0641 C.ar         1    LIG   0.0000
  31 H           -4.8257     1.9103     4.2578 H            1    LIG   0.0000
  32 H           -4.1143     3.1332     5.0732 H            1    LIG   0.0000
  33 H           -4.9834     3.4464     3.7266 H            1    LIG   0.0000
  34 H           -3.3669     0.5883     3.0101 H            1    LIG   0.0000
  35 H           -1.3952     0.3224     1.6718 H            1    LIG   0.0000
  36 H            0.6395     2.9512     0.4433 H            1    LIG   0.0000
  37 H            0.5000     0.1340     1.0000 H            1    LIG   0.0000
  38 H            5.2780     3.5209     3.1326 H            1    LIG   0.0000
  39 H            6.3980     5.6358     3.2207 H            1    LIG   0.0000
  40 H            7.2887     7.5011     2.2332 H            1    LIG   0.0000
  41 H            7.9543     7.2603     0.7616 H            1    LIG   0.0000
  42 H            6.5135     8.0177     0.8920 H            1    LIG   0.0000
  43 H            5.9194     5.6478    -2.1287 H            1    LIG   0.0000
  44 H            5.8139     7.0710    -1.3350 H            1    LIG   0.0000
  45 H            7.2548     6.3138    -1.4656 H            1    LIG   0.0000
  46 H            5.0653     3.8296    -1.0026 H            1    LIG   0.0000
  47 H            6.2110    -1.3530     0.6835 H            1    LIG   0.0000
  48 H            5.0620    -3.4453     0.6138 H            1    LIG   0.0000
  49 H            2.6767    -3.5017     0.7296 H            1    LIG   0.0000
  50 H            1.4343    -1.4697     0.9064 H            1    LIG   0.0000
  51 H           -0.6306     5.5449     2.3950 H            1    LIG   0.0000
  52 H           -2.5610     4.6379     3.4311 H            1    LIG   0.0000
@<TRIPOS>BOND
   1        1        2 1
   2        2        3 ar
   3        3        4 ar
   4        4        5 ar
   5        5        6 1
   6        6        7 1
   7        7        8 2
   8        8        9 1
   9        9       10 2
  10        9       11 am
  11       11       12 1
  12       12       13 ar
  13       13       14 ar
  14       14       15 ar
  15       15       16 1
  16       15       17 ar
  17       17       18 1
  18       17       19 ar
  19       19       12 ar
  20       11       20 am
  21       20       21 2
  22       20       22 1
  23       22       23 ar
  24       23       24 ar
  25       24       25 ar
  26       25       26 ar
  27       26       27 ar
  28       27       22 ar
  29       27        8 1
  30        5       28 ar
  31       28       29 1
  32       28       30 ar
  33       30        2 ar
  34        1       31 1
  35        1       32 1
  36        1       33 1
  37        3       34 1
  38        4       35 1
  39        6       36 1
  40        7       37 1
  41       13       38 1
  42       14       39 1
  43       16       40 1
  44       16       41 1
  45       16       42 1
  46       18       43 1
  47       18       44 1
  48       18       45 1
  49       19       46 1
  50       23       47 1
  51       24       48 1
  52       25       49 1
  53       26       50 1
  54       29       51 1
  55       30       52 1

@<TRIPOS>MOLECULE

  52   55
SMALL
USER_CHARGES
@<TRIPOS>ATOM
   1 C1          -4.3844     2.7826     4.1426 C.3          1    LIG   0.0000
   2 C2          -3.1268     2.6228     3.3036 C.ar         1    LIG   0.0000
   3 C3          -2.1202     1.7605     3.7273 C.ar         1    LIG   0.0000
   4 C4          -0.9674     1.6088     2.9632 C.ar         1    LIG   0.0000
   5 C5          -0.8396     2.3283     1.7795 C.ar         1    LIG   0.0000
   6 N6           0.3150     2.1865     1.0000 N.pl3        1    LIG   0.0000
   7 C7           1.0000     1.0000     1.0000 C.2          1    LIG   0.0000
   8 C8           2.3259     1.0000     1.0000 C.2          1    LIG   0.0000
   9 C9           3.0353     2.2597     1.0726 C.2          1    LIG   0.0000
  10 O10          2.3913     3.2911     1.1873 O.2          1    LIG   0.0000
  11 N11          4.4311     2.2788     1.0041 N.am         1    LIG   0.0000
  12 C12          5.0862     3.5148     1.0564 C.ar         1    LIG   0.0000
  13 C13          5.4680     4.0276     2.2916 C.ar         1    LIG   0.0000
  14 C14          6.1184     5.2562     2.3388 C.ar         1    LIG   0.0000
  15 C15          6.3827     5.9609     1.1695 C.ar         1    LIG   0.0000
  16 C16          7.0958     7.2995     1.2729 C.3          1    LIG   0.0000
  17 C17          5.9961     5.4373    -0.0611 C.ar         1    LIG   0.0000
  18 C18          6.2694     6.1811    -1.3586 C.3          1    LIG   0.0000
  19 C19          5.3450     4.2096    -0.1209 C.ar         1    LIG   0.0000
  20 C20          5.1757     1.0968     0.8807 C.2          1    LIG   0.0000
  21 O21          6.3927     1.1903     0.8115 O.2          1    LIG   0.0000
  22 C22          4.4989    -0.1863     0.8426 C.ar         1    LIG   0.0000
  23 C23          5.2125    -1.3749     0.7327 C.ar         1    LIG   0.0000
  24 C24          4.5447    -2.5930     0.6910 C.ar         1    LIG   0.0000
  25 C25          3.1563    -2.6247     0.7568 C.ar         1    LIG   0.0000
  26 C26          2.4329    -1.4447     0.8602 C.ar         1    LIG   0.0000
  27 C27          3.1047    -0.2266     0.8990 C.ar         1    LIG   0.0000
  28 C28         -1.8481     3.1899     1.3611 C.ar         1    LIG   0.0000
  29 O29         -1.7109     3.8827     0.2105 O.3          1    LIG   0.0000
  30 C30         -3.0024     3.3444     2.1212 C.ar         1    LIG   0.0000
  31 H           -4.3200     2.2015     4.9539 H            1    LIG   0.0000
  32 H           -4.4786     3.7377     4.4234 H            1    LIG   0.0000
  33 H           -5.1818     2.5137     3.6024 H            1    LIG   0.0000
  34 H           -2.2253     1.2500     4.5807 H            1    LIG   0.0000
  35 H           -0.2402     0.9904     3.2610 H            1    LIG   0.0000
  36 H            0.6395     2.9512     0.4433 H            1    LIG   0.0000
  37 H            0.5000     0.1340     1.0000 H            1    LIG   0.0000
  38 H            5.2780     3.5209     3.1326 H            1    LIG   0.0000
  39 H            6.3980     5.6358     3.2207 H            1    LIG   0.0000
  40 H            7.2887     7.5011     2.2332 H            1    LIG   0.0000
  41 H            7.9543     7.2603     0.7616 H            1    LIG   0.0000
  42 H            6.5135     8.0177     0.8920 H            1    LIG   0.0000
  43 H            5.9194     5.6478    -2.1287 H            1    LIG   0.0000
  44 H            5.8139     7.0710    -1.3350 H            1    LIG   0.0000
  45 H            7.2548     6.3138    -1.4656 H            1    LIG   0.0000
  46 H            5.0653     3.8296    -1.0026 H            1    LIG   0.0000
  47 H            6.2110    -1.3530     0.6835 H            1    LIG   0.0000
  48 H            5.0620    -3.4453     0.6138 H            1    LIG   0.0000
  49 H            2.6767    -3.5017     0.7296 H            1    LIG   0.0000
  50 H            1.4343    -1.4697     0.9064 H            1    LIG   0.0000
  51 H           -2.4364     4.5020    -0.0898 H            1    LIG   0.0000
  52 H           -3.7295     3.9629     1.8232 H            1    LIG   0.0000
@<TRIPOS>BOND
   1        1        2 1
   2        2        3 ar
   3        3        4 ar
   4        4        5 ar
   5        5        6 1
   6        6        7 1
   7        7        8 2
   8        8        9 1
   9        9       10 2
  10        9       11 am
  11       11       12 1
  12       12       13 ar
  13       13       14 ar
  14       14       15 ar
  15       15       16 1
  16       15       17 ar
  17       17       18 1
  18       17       19 ar
  19       19       12 ar
  20       11       20 am
  21       20       21 2
  22       20       22 1
  23       22       23 ar
  24       23       24 ar
  25       24       25 ar
  26       25       26 ar
  27       26       27 ar
  28       27       22 ar
  29       27        8 1
  30        5       28 ar
  31       28       29 1
  32       28       30 ar
  33       30        2 ar
  34        1       31 1
  35        1       32 1
  36        1       33 1
  37        3       34 1
  38        4       35 1
  39        6       36 1
  40        7       37 1
  41       13       38 1
  42       14       39 1
  43       16       40 1
  44       16       41 1
  45       16       42 1
  46       18       43 1
  47       18       44 1
  48       18       45 1
  49       19       46 1
  50       23       47 1
  51       24       48 1
  52       25       49 1
  53       26       50 1
  54       29       51 1
  55       30       52 1

@<TRIPOS>MOLECULE

  52   55
SMALL
USER_CHARGES
@<TRIPOS>ATOM
   1 C1          -4.3895     2.7675     4.1378 C.3          1    LIG   0.0000
   2 C2          -3.1305     2.6126     3.3000 C.ar         1    LIG   0.0000
   3 C3          -1.9220     2.3114     3.9206 C.ar         1    LIG   0.0000
   4 C4          -0.7665     2.1670     3.1593 C.ar         1    LIG   0.0000
   5 C5          -0.8396     2.3283     1.7795 C.ar         1    LIG   0.0000
   6 N6           0.3150     2.1865     1.0000 N.pl3        1    LIG   0.0000
   7 C7           1.0000     1.0000     1.0000 C.2          1    LIG   0.0000
   8 C8           2.3259     1.0000     1.0000 C.2          1    LIG   0.0000
   9 C9           3.0353     2.2597     1.0726 C.2          1    LIG   0.0000
  10 O10          2.3913     3.2911     1.1873 O.2          1    LIG   0.0000
  11 N11          4.4311     2.2788     1.0041 N.am         1    LIG   0.0000
  12 C12          5.0862     3.5148     1.0564 C.ar         1    LIG   0.0000
  13 C13          5.4680     4.0276     2.2916 C.ar         1    LIG   0.0000
  14 C14          6.1184     5.2562     2.3388 C.ar         1    LIG   0.0000
  15 C15          6.3827     5.9609     1.1695 C.ar         1    LIG   0.0000
  16 C16          7.0958     7.2995     1.2729 C.3          1    LIG   0.0000
  17 C17          5.9961     5.4373    -0.0611 C.ar         1    LIG   0.0000
  18 C18          6.2694     6.1811    -1.3586 C.3          1    LIG   0.0000
  19 C19          5.3450     4.2096    -0.1209 C.ar         1    LIG   0.0000
  20 C20          5.1757     1.0968     0.8807 C.2          1    LIG   0.0000
  21 O21          6.3927     1.1903     0.8115 O.2          1    LIG   0.0000
  22 C22          4.4989    -0.1863     0.8426 C.ar         1    LIG   0.0000
  23 C23          5.2125    -1.3749     0.7327 C.ar         1    LIG   0.0000
  24 C24          4.5447    -2.5930     0.6910 C.ar         1    LIG   0.0000
  25 C25          3.1563    -2.6247     0.7568 C.ar         1    LIG   0.0000
  26 C26          2.4329    -1.4447     0.8602 C.ar         1    LIG   0.0000
  27 C27          3.1047    -0.2266     0.8990 C.ar         1    LIG   0.0000
  28 C28         -2.0498     2.6306     1.1642 C.ar         1    LIG   0.0000
  29 O29         -2.1066     2.7851    -0.1758 O.3          1    LIG   0.0000
  30 C30         -3.2075     2.7754     1.9210 C.ar         1    LIG   0.0000
  31 H           -4.1684     2.6212     5.1020 H            1    LIG   0.0000
  32 H           -4.7593     3.6887     4.0167 H            1    LIG   0.0000
  33 H           -5.0690     2.0945     3.8458 H            1    LIG   0.0000
  34 H           -1.8840     2.1988     4.9135 H            1    LIG   0.0000
  35 H            0.1054     1.9499     3.5983 H            1    LIG   0.0000
  36 H            0.6395     2.9512     0.4433 H            1    LIG   0.0000
  37 H            0.5000     0.1340     1.0000 H            1    LIG   0.0000
  38 H            5.2780     3.5209     3.1326 H            1    LIG   0.0000
  39 H            6.3980     5.6358     3.2207 H            1    LIG   0.0000
  40 H            7.2887     7.5011     2.2332 H            1    LIG   0.0000
  41 H            7.9543     7.2603     0.7616 H            1    LIG   0.0000
  42 H            6.5135     8.0177     0.8920 H            1    LIG   0.0000
  43 H            5.9194     5.6478    -2.1287 H            1    LIG   0.0000
  44 H            5.8139     7.0710    -1.3350 H            1    LIG   0.0000
  45 H            7.2548     6.3138    -1.4656 H            1    LIG   0.0000
  46 H            5.0653     3.8296    -1.0026 H            1    LIG   0.0000
  47 H            6.2110    -1.3530     0.6835 H            1    LIG   0.0000
  48 H            5.0620    -3.4453     0.6138 H            1    LIG   0.0000
  49 H            2.6767    -3.5017     0.7296 H            1    LIG   0.0000
  50 H            1.4343    -1.4697     0.9064 H            1    LIG   0.0000
  51 H           -2.9769     3.0024    -0.6176 H            1    LIG   0.0000
  52 H           -4.0793     2.9924     1.4817 H            1    LIG   0.0000
@<TRIPOS>BOND
   1        1        2 1
   2        2        3 ar
   3        3        4 ar
   4        4        5 ar
   5        5        6 1
   6        6        7 1
   7        7        8 2
   8        8        9 1
   9        9       10 2
  10        9       11 am
  11       11       12 1
  12       12       13 ar
  13       13       14 ar
  14       14       15 ar
  15       15       16 1
  16       15       17 ar
  17       17       18 1
  18       17       19 ar
  19       19       12 ar
  20       11       20 am
  21       20       21 2
  22       20       22 1
  23       22       23 ar
  24       23       24 ar
  25       24       25 ar
  26       25       26 ar
  27       26       27 ar
  28       27       22 ar
  29       27        8 1
  30        5       28 ar
  31       28       29 1
  32       28       30 ar
  33       30        2 ar
  34        1       31 1
  35        1       32 1
  36        1       33 1
  37        3       34 1
  38        4       35 1
  39        6       36 1
  40        7       37 1
  41       13       38 1
  42       14       39 1
  43       16       40 1
  44       16       41 1
  45       16       42 1
  46       18       43 1
  47       18       44 1
  48       18       45 1
  49       19       46 1
  50       23       47 1
  51       24       48 1
  52       25       49 1
  53       26       50 1
  54       29       51 1
  55       30       52 1

@<TRIPOS>MOLECULE

  52   55
SMALL
USER_CHARGES
@<TRIPOS>ATOM
   1 C1          -4.3548     2.7572     4.1911 C.3          1    LIG   0.0000
   2 C2          -3.1069     2.6040     3.3364 C.ar         1    LIG   0.0000
   3 C3          -3.1916     2.7672     1.9571 C.ar         1    LIG   0.0000
   4 C4          -2.0529     2.6298     1.1695 C.ar         1    LIG   0.0000
   5 C5          -0.8396     2.3283     1.7795 C.ar         1    LIG   0.0000
   6 N6           0.3150     2.1865     1.0000 N.pl3        1    LIG   0.0000
   7 C7           1.0000     1.0000     1.0000 C.2          1    LIG   0.0000
   8 C8           2.3259     1.0000     1.0000 C.2          1    LIG   0.0000
   9 C9           3.0353     2.2597     1.0726 C.2          1    LIG   0.0000
  10 O10          2.3913     3.2911     1.1873 O.2          1    LIG   0.0000
  11 N11          4.4311     2.2788     1.0041 N.am         1    LIG   0.0000
  12 C12          5.0862     3.5148     1.0564 C.ar         1    LIG   0.0000
  13 C13          5.4680     4.0276     2.2916 C.ar         1    LIG   0.0000
  14 C14          6.1184     5.2562     2.3388 C.ar         1    LIG   0.0000
  15 C15          6.3827     5.9609     1.1695 C.ar         1    LIG   0.0000
  16 C16          7.0958     7.2995     1.2729 C.3          1    LIG   0.0000
  17 C17          5.9961     5.4373    -0.0611 C.ar         1    LIG   0.0000
  18 C18          6.2694     6.1811    -1.3586 C.3          1    LIG   0.0000
  19 C19          5.3450     4.2096    -0.1209 C.ar         1    LIG   0.0000
  20 C20          5.1757     1.0968     0.8807 C.2          1    LIG   0.0000
  21 O21          6.3927     1.1903     0.8115 O.2          1    LIG   0.0000
  22 C22          4.4989    -0.1863     0.8426 C.ar         1    LIG   0.0000
  23 C23          5.2125    -1.3749     0.7327 C.ar         1    LIG   0.0000
  24 C24          4.5447    -2.5930     0.6910 C.ar         1    LIG   0.0000
  25 C25          3.1563    -2.6247     0.7568 C.ar         1    LIG   0.0000
  26 C26          2.4329    -1.4447     0.8602 C.ar         1    LIG   0.0000
  27 C27          3.1047    -0.2266     0.8990 C.ar         1    LIG   0.0000
  28 C28         -0.7606     2.1650     3.1585 C.ar         1    LIG   0.0000
  29 O29          0.4233     1.8720     3.7376 O.3          1    LIG   0.0000
  30 C30         -1.8959     2.3020     3.9499 C.ar         1    LIG   0.0000
  31 H           -5.1359     2.9723     3.6050 H            1    LIG   0.0000
  32 H           -4.5305     1.9030     4.6805 H            1    LIG   0.0000
  33 H           -4.2188     3.4970     4.8500 H            1    LIG   0.0000
  34 H           -4.0706     2.9831     1.5320 H            1    LIG   0.0000
  35 H           -2.1060     2.7462     0.1778 H            1    LIG   0.0000
  36 H            0.6395     2.9512     0.4433 H            1    LIG   0.0000
  37 H            0.5000     0.1340     1.0000 H            1    LIG   0.0000
  38 H            5.2780     3.5209     3.1326 H            1    LIG   0.0000
  39 H            6.3980     5.6358     3.2207 H            1    LIG   0.0000
  40 H            7.2887     7.5011     2.2332 H            1    LIG   0.0000
  41 H            7.9543     7.2603     0.7616 H            1    LIG   0.0000
  42 H            6.5135     8.0177     0.8920 H            1    LIG   0.0000
  43 H            5.9194     5.6478    -2.1287 H            1    LIG   0.0000
  44 H            5.8139     7.0710    -1.3350 H            1    LIG   0.0000
  45 H            7.2548     6.3138    -1.4656 H            1    LIG   0.0000
  46 H            5.0653     3.8296    -1.0026 H            1    LIG   0.0000
  47 H            6.2110    -1.3530     0.6835 H            1    LIG   0.0000
  48 H            5.0620    -3.4453     0.6138 H            1    LIG   0.0000
  49 H            2.6767    -3.5017     0.7296 H            1    LIG   0.0000
  50 H            1.4343    -1.4697     0.9064 H            1    LIG   0.0000
  51 H            0.4795     1.7547     4.7291 H            1    LIG   0.0000
  52 H           -1.8425     2.1854     4.9416 H            1    LIG   0.0000
@<TRIPOS>BOND
   1        1        2 1
   2        2        3 ar
   3        3        4 ar
   4        4        5 ar
   5        5        6 1
   6        6        7 1
   7        7        8 2
   8        8        9 1
   9        9       10 2
  10        9       11 am
  11       11       12 1
  12       12       13 ar
  13       13       14 ar
  14       14       15 ar
  15       15       16 1
  16       15       17 ar
  17       17       18 1
  18       17       19 ar
  19       19       12 ar
  20       11       20 am
  21       20       21 2
  22       20       22 1
  23       22       23 ar
  24       23       24 ar
  25       24       25 ar
  26       25       26 ar
  27       26       27 ar
  28       27       22 ar
  29       27        8 1
  30        5       28 ar
  31       28       29 1
  32       28       30 ar
  33       30        2 ar
  34        1       31 1
  35        1       32 1
  36        1       33 1
  37        3       34 1
  38        4       35 1
  39        6       36 1
  40        7       37 1
  41       13       38 1
  42       14       39 1
  43       16       40 1
  44       16       41 1
  45       16       42 1
  46       18       43 1
  47       18       44 1
  48       18       45 1
  49       19       46 1
  50       23       47 1
  51       24       48 1
  52       25       49 1
  53       26       50 1
  54       29       51 1
  55       30       52 1

@<TRIPOS>MOLECULE

  52   55
SMALL
USER_CHARGES
@<TRIPOS>ATOM
   1 C1          -4.3856     2.7375     4.1490 C.3          1    LIG   0.0000
   2 C2          -3.1283     2.5918     3.3071 C.ar         1    LIG   0.0000
   3 C3          -2.0434     3.4324     3.5367 C.ar         1    LIG   0.0000
   4 C4          -0.8892     3.3032     2.7706 C.ar         1    LIG   0.0000
   5 C5          -0.8396     2.3283     1.7795 C.ar         1    LIG   0.0000
   6 N6           0.3150     2.1865     1.0000 N.pl3        1    LIG   0.0000
   7 C7           1.0000     1.0000     1.0000 C.2          1    LIG   0.0000
   8 C8           2.3259     1.0000     1.0000 C.2          1    LIG   0.0000
   9 C9           3.0353     2.2597     1.0726 C.2          1    LIG   0.0000
  10 O10          2.3913     3.2911     1.1873 O.2          1    LIG   0.0000
  11 N11          4.4311     2.2788     1.0041 N.am         1    LIG   0.0000
  12 C12          5.0862     3.5148     1.0564 C.ar         1    LIG   0.0000
  13 C13          5.4680     4.0276     2.2916 C.ar         1    LIG   0.0000
  14 C14          6.1184     5.2562     2.3388 C.ar         1    LIG   0.0000
  15 C15          6.3827     5.9609     1.1695 C.ar         1    LIG   0.0000
  16 C16          7.0958     7.2995     1.2729 C.3          1    LIG   0.0000
  17 C17          5.9961     5.4373    -0.0611 C.ar         1    LIG   0.0000
  18 C18          6.2694     6.1811    -1.3586 C.3          1    LIG   0.0000
  19 C19          5.3450     4.2096    -0.1209 C.ar         1    LIG   0.0000
  20 C20          5.1757     1.0968     0.8807 C.2          1    LIG   0.0000
  21 O21          6.3927     1.1903     0.8115 O.2          1    LIG   0.0000
  22 C22          4.4989    -0.1863     0.8426 C.ar         1    LIG   0.0000
  23 C23          5.2125    -1.3749     0.7327 C.ar         1    LIG   0.0000
  24 C24          4.5447    -2.5930     0.6910 C.ar         1    LIG   0.0000
  25 C25          3.1563    -2.6247     0.7568 C.ar         1    LIG   0.0000
  26 C26          2.4329    -1.4447     0.8602 C.ar         1    LIG   0.0000
  27 C27          3.1047    -0.2266     0.8990 C.ar         1    LIG   0.0000
  28 C28         -1.9272     1.4914     1.5531 C.ar         1    LIG   0.0000
  29 O29         -1.8659     0.5498     0.5875 O.3          1    LIG   0.0000
  30 C30         -3.0827     1.6165     2.3167 C.ar         1    LIG   0.0000
  31 H           -4.2600     3.4767     4.8107 H            1    LIG   0.0000
  32 H           -5.1616     2.9501     3.5551 H            1    LIG   0.0000
  33 H           -4.5624     1.8816     4.6349 H            1    LIG   0.0000
  34 H           -2.0933     4.1292     4.2523 H            1    LIG   0.0000
  35 H           -0.1055     3.9033     2.9304 H            1    LIG   0.0000
  36 H            0.6395     2.9512     0.4433 H            1    LIG   0.0000
  37 H            0.5000     0.1340     1.0000 H            1    LIG   0.0000
  38 H            5.2780     3.5209     3.1326 H            1    LIG   0.0000
  39 H            6.3980     5.6358     3.2207 H            1    LIG   0.0000
  40 H            7.2887     7.5011     2.2332 H            1    LIG   0.0000
  41 H            7.9543     7.2603     0.7616 H            1    LIG   0.0000
  42 H            6.5135     8.0177     0.8920 H            1    LIG   0.0000
  43 H            5.9194     5.6478    -2.1287 H            1    LIG   0.0000
  44 H            5.8139     7.0710    -1.3350 H            1    LIG   0.0000
  45 H            7.2548     6.3138    -1.4656 H            1    LIG   0.0000
  46 H            5.0653     3.8296    -1.0026 H            1    LIG   0.0000
  47 H            6.2110    -1.3530     0.6835 H            1    LIG   0.0000
  48 H            5.0620    -3.4453     0.6138 H            1    LIG   0.0000
  49 H            2.6767    -3.5017     0.7296 H            1    LIG   0.0000
  50 H            1.4343    -1.4697     0.9064 H            1    LIG   0.0000
  51 H           -2.6481    -0.0516     0.4252 H            1    LIG   0.0000
  52 H           -3.8664     1.0162     2.1567 H            1    LIG   0.0000
@<TRIPOS>BOND
   1        1        2 1
   2        2        3 ar
   3        3        4 ar
   4        4        5 ar
   5        5        6 1
   6        6        7 1
   7        7        8 2
   8        8        9 1
   9        9       10 2
  10        9       11 am
  11       11       12 1
  12       12       13 ar
  13       13       14 ar
  14       14       15 ar
  15       15       16 1
  16       15       17 ar
  17       17       18 1
  18       17       19 ar
  19       19       12 ar
  20       11       20 am
  21       20       21 2
  22       20       22 1
  23       22       23 ar
  24       23       24 ar
  25       24       25 ar
  26       25       26 ar
  27       26       27 ar
  28       27       22 ar
  29       27        8 1
  30        5       28 ar
  31       28       29 1
  32       28       30 ar
  33       30        2 ar
  34        1       31 1
  35        1       32 1
  36        1       33 1
  37        3       34 1
  38        4       35 1
  39        6       36 1
  40        7       37 1
  41       13       38 1
  42       14       39 1
  43       16       40 1
  44       16       41 1
  45       16       42 1
  46       18       43 1
  47       18       44 1
  48       18       45 1
  49       19       46 1
  50       23       47 1
  51       24       48 1
  52       25       49 1
  53       26       50 1
  54       29       51 1
  55       30       52 1

@<TRIPOS>MOLECULE

  52   55
SMALL
USER_CHARGES
@<TRIPOS>ATOM
   1 C1          -4.3586     2.7872     4.1799 C.3          1    LIG   0.0000
   2 C2          -3.1092     2.6249     3.3293 C.ar         1    LIG   0.0000
   3 C3          -3.0702     1.6462     2.3409 C.ar         1    LIG   0.0000
   4 C4          -1.9302     1.4936     1.5582 C.ar         1    LIG   0.0000
   5 C5          -0.8396     2.3283     1.7795 C.ar         1    LIG   0.0000
   6 N6           0.3150     2.1865     1.0000 N.pl3        1    LIG   0.0000
   7 C7           1.0000     1.0000     1.0000 C.2          1    LIG   0.0000
   8 C8           2.3259     1.0000     1.0000 C.2          1    LIG   0.0000
   9 C9           3.0353     2.2597     1.0726 C.2          1    LIG   0.0000
  10 O10          2.3913     3.2911     1.1873 O.2          1    LIG   0.0000
  11 N11          4.4311     2.2788     1.0041 N.am         1    LIG   0.0000
  12 C12          5.0862     3.5148     1.0564 C.ar         1    LIG   0.0000
  13 C13          5.4680     4.0276     2.2916 C.ar         1    LIG   0.0000
  14 C14          6.1184     5.2562     2.3388 C.ar         1    LIG   0.0000
  15 C15          6.3827     5.9609     1.1695 C.ar         1    LIG   0.0000
  16 C16          7.0958     7.2995     1.2729 C.3          1    LIG   0.0000
  17 C17          5.9961     5.4373    -0.0611 C.ar         1    LIG   0.0000
  18 C18          6.2694     6.1811    -1.3586 C.3          1    LIG   0.0000
  19 C19          5.3450     4.2096    -0.1209 C.ar         1    LIG   0.0000
  20 C20          5.1757     1.0968     0.8807 C.2          1    LIG   0.0000
  21 O21          6.3927     1.1903     0.8115 O.2          1    LIG   0.0000
  22 C22          4.4989    -0.1863     0.8426 C.ar         1    LIG   0.0000
  23 C23          5.2125    -1.3749     0.7327 C.ar         1    LIG   0.0000
  24 C24          4.5447    -2.5930     0.6910 C.ar         1    LIG   0.0000
  25 C25          3.1563    -2.6247     0.7568 C.ar         1    LIG   0.0000
  26 C26          2.4329    -1.4447     0.8602 C.ar         1    LIG   0.0000
  27 C27          3.1047    -0.2266     0.8990 C.ar         1    LIG   0.0000
  28 C28         -0.8832     3.3042     2.7696 C.ar         1    LIG   0.0000
  29 O29          0.1826     4.1073     2.9742 O.3          1    LIG   0.0000
  30 C30         -2.0207     3.4609     3.5541 C.ar         1    LIG   0.0000
  31 H           -5.0443     2.1168     3.8963 H            1    LIG   0.0000
  32 H           -4.1281     2.6416     5.1420 H            1    LIG   0.0000
  33 H           -4.7254     3.7099     4.0609 H            1    LIG   0.0000
  34 H           -3.8614     1.0527     2.1933 H            1    LIG   0.0000
  35 H           -1.8952     0.7928     0.8456 H            1    LIG   0.0000
  36 H            0.6395     2.9512     0.4433 H            1    LIG   0.0000
  37 H            0.5000     0.1340     1.0000 H            1    LIG   0.0000
  38 H            5.2780     3.5209     3.1326 H            1    LIG   0.0000
  39 H            6.3980     5.6358     3.2207 H            1    LIG   0.0000
  40 H            7.2887     7.5011     2.2332 H            1    LIG   0.0000
  41 H            7.9543     7.2603     0.7616 H            1    LIG   0.0000
  42 H            6.5135     8.0177     0.8920 H            1    LIG   0.0000
  43 H            5.9194     5.6478    -2.1287 H            1    LIG   0.0000
  44 H            5.8139     7.0710    -1.3350 H            1    LIG   0.0000
  45 H            7.2548     6.3138    -1.4656 H            1    LIG   0.0000
  46 H            5.0653     3.8296    -1.0026 H            1    LIG   0.0000
  47 H            6.2110    -1.3530     0.6835 H            1    LIG   0.0000
  48 H            5.0620    -3.4453     0.6138 H            1    LIG   0.0000
  49 H            2.6767    -3.5017     0.7296 H            1    LIG   0.0000
  50 H            1.4343    -1.4697     0.9064 H            1    LIG   0.0000
  51 H            0.1507     4.8088     3.6863 H            1    LIG   0.0000
  52 H           -2.0554     4.1617     4.2667 H            1    LIG   0.0000
@<TRIPOS>BOND
   1        1        2 1
   2        2        3 ar
   3        3        4 ar
   4        4        5 ar
   5        5        6 1
   6        6        7 1
   7        7        8 2
   8        8        9 1
   9        9       10 2
  10        9       11 am
  11       11       12 1
  12       12       13 ar
  13       13       14 ar
  14       14       15 ar
  15       15       16 1
  16       15       17 ar
  17       17       18 1
  18       17       19 ar
  19       19       12 ar
  20       11       20 am
  21       20       21 2
  22       20       22 1
  23       22       23 ar
  24       23       24 ar
  25       24       25 ar
  26       25       26 ar
  27       26       27 ar
  28       27       22 ar
  29       27        8 1
  30        5       28 ar
  31       28       29 1
  32       28       30 ar
  33       30        2 ar
  34        1       31 1
  35        1       32 1
  36        1       33 1
  37        3       34 1
  38        4       35 1
  39        6       36 1
  40        7       37 1
  41       13       38 1
  42       14       39 1
  43       16       40 1
  44       16       41 1
  45       16       42 1
  46       18       43 1
  47       18       44 1
  48       18       45 1
  49       19       46 1
  50       23       47 1
  51       24       48 1
  52       25       49 1
  53       26       50 1
  54       29       51 1
  55       30       52 1

