@<TRIPOS>MOLECULE
*****
 52 55 0 0 0
SMALL
USER_CHARGES

@<TRIPOS>ATOM
      1 C1         -4.3895    2.7675    4.1378 C.3     1  LIG1        0.0000
      2 C2         -3.1305    2.6126    3.3000 C.3     1  LIG1        0.0000
      3 C3         -1.9220    2.3114    3.9206 C.3     1  LIG1        0.0000
      4 C4         -0.7665    2.1670    3.1593 C.3     1  LIG1        0.0000
      5 C5         -0.8396    2.3283    1.7795 C.3     1  LIG1        0.0000
      6 N6          0.3150    2.1865    1.0000 N.pl3   1  LIG1        0.0000
      7 C7          1.0000    1.0000    1.0000 C.2     1  LIG1        0.0000
      8 C8          2.3259    1.0000    1.0000 C.2     1  LIG1        0.0000
      9 C9          3.0353    2.2597    1.0726 C.2     1  LIG1        0.0000
     10 O10         2.3913    3.2911    1.1873 O.2     1  LIG1        0.0000
     11 N11         4.4311    2.2788    1.0041 N.am    1  LIG1        0.0000
     12 C12         5.0862    3.5148    1.0564 C.3     1  LIG1        0.0000
     13 C13         5.3386    4.1987   -0.1281 C.3     1  LIG1        0.0000
     14 C14         5.9901    5.4263   -0.0712 C.3     1  LIG1        0.0000
     15 C15         6.3829    5.9616    1.1507 C.3     1  LIG1        0.0000
     16 C16         7.0920    7.3063    1.1609 C.3     1  LIG1        0.0000
     17 C17         6.1245    5.2680    2.3296 C.3     1  LIG1        0.0000
     18 C18         6.5401    5.8241    3.6823 C.3     1  LIG1        0.0000
     19 C19         5.4737    4.0394    2.2854 C.3     1  LIG1        0.0000
     20 C20         5.1757    1.0968    0.8807 C.2     1  LIG1        0.0000
     21 O21         6.3927    1.1903    0.8115 O.2     1  LIG1        0.0000
     22 C22         4.4989   -0.1863    0.8426 C.3     1  LIG1        0.0000
     23 C23         5.2125   -1.3749    0.7327 C.3     1  LIG1        0.0000
     24 C24         4.5447   -2.5930    0.6910 C.3     1  LIG1        0.0000
     25 C25         3.1563   -2.6247    0.7568 C.3     1  LIG1        0.0000
     26 C26         2.4329   -1.4447    0.8602 C.3     1  LIG1        0.0000
     27 C27         3.1047   -0.2266    0.8990 C.3     1  LIG1        0.0000
     28 C28        -2.0498    2.6306    1.1642 C.3     1  LIG1        0.0000
     29 O29        -2.1066    2.7851   -0.1758 O.2     1  LIG1        0.0000
     30 C30        -3.2075    2.7754    1.9210 C.3     1  LIG1        0.0000
     31 H          -4.1684    2.6212    5.1020 H       1  LIG1        0.0000
     32 H          -4.7593    3.6887    4.0167 H       1  LIG1        0.0000
     33 H          -5.0690    2.0945    3.8458 H       1  LIG1        0.0000
     34 H          -1.8840    2.1988    4.9135 H       1  LIG1        0.0000
     35 H           0.1054    1.9499    3.5983 H       1  LIG1        0.0000
     36 H           0.6395    2.9512    0.4433 H       1  LIG1        0.0000
     37 H           0.5000    0.1340    1.0000 H       1  LIG1        0.0000
     38 H           5.0562    3.8139   -1.0068 H       1  LIG1        0.0000
     39 H           6.1775    5.9280   -0.9157 H       1  LIG1        0.0000
     40 H           7.1838    7.6419    0.2234 H       1  LIG1        0.0000
     41 H           6.5592    7.9600    1.6982 H       1  LIG1        0.0000
     42 H           7.9995    7.2016    1.5678 H       1  LIG1        0.0000
     43 H           6.2691    5.1857    4.4027 H       1  LIG1        0.0000
     44 H           7.5323    5.9469    3.7016 H       1  LIG1        0.0000
     45 H           6.0922    6.7055    3.8322 H       1  LIG1        0.0000
     46 H           5.2859    3.5376    3.1297 H       1  LIG1        0.0000
     47 H           6.2110   -1.3530    0.6835 H       1  LIG1        0.0000
     48 H           5.0620   -3.4453    0.6138 H       1  LIG1        0.0000
     49 H           2.6767   -3.5017    0.7296 H       1  LIG1        0.0000
     50 H           1.4343   -1.4697    0.9064 H       1  LIG1        0.0000
     51 H          -2.9769    3.0024   -0.6176 H       1  LIG1        0.0000
     52 H          -4.0793    2.9924    1.4817 H       1  LIG1        0.0000
@<TRIPOS>BOND
     1     1     2    1
     2     2     3   ar
     3     3     4   ar
     4     4     5   ar
     5     5     6    1
     6     6     7    1
     7     7     8    2
     8     8     9    1
     9     9    10    2
    10     9    11   am
    11    11    12    1
    12    12    13   ar
    13    13    14   ar
    14    14    15   ar
    15    15    16    1
    16    15    17   ar
    17    17    18    1
    18    17    19   ar
    19    19    12   ar
    20    11    20   am
    21    20    21    2
    22    20    22    1
    23    22    23   ar
    24    23    24   ar
    25    24    25   ar
    26    25    26   ar
    27    26    27   ar
    28    27    22   ar
    29    27     8    1
    30     5    28   ar
    31    28    29    1
    32    28    30   ar
    33    30     2   ar
    34     1    31    1
    35     1    32    1
    36     1    33    1
    37     3    34    1
    38     4    35    1
    39     6    36    1
    40     7    37    1
    41    13    38    1
    42    14    39    1
    43    16    40    1
    44    16    41    1
    45    16    42    1
    46    18    43    1
    47    18    44    1
    48    18    45    1
    49    19    46    1
    50    23    47    1
    51    24    48    1
    52    25    49    1
    53    26    50    1
    54    29    51    1
    55    30    52    1
