@<TRIPOS>MOLECULE
*****
 52 55 0 0 0
SMALL
USER_CHARGES

@<TRIPOS>ATOM
      1 C1         -4.3844    2.7826    4.1426 C.3     1  LIG1        0.0000
      2 C2         -3.1268    2.6228    3.3036 C.3     1  LIG1        0.0000
      3 C3         -2.1202    1.7605    3.7273 C.3     1  LIG1        0.0000
      4 C4         -0.9674    1.6088    2.9632 C.3     1  LIG1        0.0000
      5 C5         -0.8396    2.3283    1.7795 C.3     1  LIG1        0.0000
      6 N6          0.3150    2.1865    1.0000 N.pl3   1  LIG1        0.0000
      7 C7          1.0000    1.0000    1.0000 C.2     1  LIG1        0.0000
      8 C8          2.3259    1.0000    1.0000 C.2     1  LIG1        0.0000
      9 C9          3.0353    2.2597    1.0726 C.2     1  LIG1        0.0000
     10 O10         2.3913    3.2911    1.1873 O.2     1  LIG1        0.0000
     11 N11         4.4311    2.2788    1.0041 N.am    1  LIG1        0.0000
     12 C12         5.0862    3.5148    1.0564 C.3     1  LIG1        0.0000
     13 C13         5.4680    4.0276    2.2916 C.3     1  LIG1        0.0000
     14 C14         6.1184    5.2562    2.3388 C.3     1  LIG1        0.0000
     15 C15         6.3827    5.9609    1.1695 C.3     1  LIG1        0.0000
     16 C16         7.0958    7.2995    1.2729 C.3     1  LIG1        0.0000
     17 C17         5.9961    5.4373   -0.0611 C.3     1  LIG1        0.0000
     18 C18         6.2694    6.1811   -1.3586 C.3     1  LIG1        0.0000
     19 C19         5.3450    4.2096   -0.1209 C.3     1  LIG1        0.0000
     20 C20         5.1757    1.0968    0.8807 C.2     1  LIG1        0.0000
     21 O21         6.3927    1.1903    0.8115 O.2     1  LIG1        0.0000
     22 C22         4.4989   -0.1863    0.8426 C.3     1  LIG1        0.0000
     23 C23         5.2125   -1.3749    0.7327 C.3     1  LIG1        0.0000
     24 C24         4.5447   -2.5930    0.6910 C.3     1  LIG1        0.0000
     25 C25         3.1563   -2.6247    0.7568 C.3     1  LIG1        0.0000
     26 C26         2.4329   -1.4447    0.8602 C.3     1  LIG1        0.0000
     27 C27         3.1047   -0.2266    0.8990 C.3     1  LIG1        0.0000
     28 C28        -1.8481    3.1899    1.3611 C.3     1  LIG1        0.0000
     29 O29        -1.7109    3.8827    0.2105 O.2     1  LIG1        0.0000
     30 C30        -3.0024    3.3444    2.1212 C.3     1  LIG1        0.0000
     31 H          -4.3200    2.2015    4.9539 H       1  LIG1        0.0000
     32 H          -4.4786    3.7377    4.4234 H       1  LIG1        0.0000
     33 H          -5.1818    2.5137    3.6024 H       1  LIG1        0.0000
     34 H          -2.2253    1.2500    4.5807 H       1  LIG1        0.0000
     35 H          -0.2402    0.9904    3.2610 H       1  LIG1        0.0000
     36 H           0.6395    2.9512    0.4433 H       1  LIG1        0.0000
     37 H           0.5000    0.1340    1.0000 H       1  LIG1        0.0000
     38 H           5.2780    3.5209    3.1326 H       1  LIG1        0.0000
     39 H           6.3980    5.6358    3.2207 H       1  LIG1        0.0000
     40 H           7.2887    7.5011    2.2332 H       1  LIG1        0.0000
     41 H           7.9543    7.2603    0.7616 H       1  LIG1        0.0000
     42 H           6.5135    8.0177    0.8920 H       1  LIG1        0.0000
     43 H           5.9194    5.6478   -2.1287 H       1  LIG1        0.0000
     44 H           5.8139    7.0710   -1.3350 H       1  LIG1        0.0000
     45 H           7.2548    6.3138   -1.4656 H       1  LIG1        0.0000
     46 H           5.0653    3.8296   -1.0026 H       1  LIG1        0.0000
     47 H           6.2110   -1.3530    0.6835 H       1  LIG1        0.0000
     48 H           5.0620   -3.4453    0.6138 H       1  LIG1        0.0000
     49 H           2.6767   -3.5017    0.7296 H       1  LIG1        0.0000
     50 H           1.4343   -1.4697    0.9064 H       1  LIG1        0.0000
     51 H          -2.4364    4.5020   -0.0898 H       1  LIG1        0.0000
     52 H          -3.7295    3.9629    1.8232 H       1  LIG1        0.0000
@<TRIPOS>BOND
     1     1     2    1
     2     2     3   ar
     3     3     4   ar
     4     4     5   ar
     5     5     6    1
     6     6     7    1
     7     7     8    2
     8     8     9    1
     9     9    10    2
    10     9    11   am
    11    11    12    1
    12    12    13   ar
    13    13    14   ar
    14    14    15   ar
    15    15    16    1
    16    15    17   ar
    17    17    18    1
    18    17    19   ar
    19    19    12   ar
    20    11    20   am
    21    20    21    2
    22    20    22    1
    23    22    23   ar
    24    23    24   ar
    25    24    25   ar
    26    25    26   ar
    27    26    27   ar
    28    27    22   ar
    29    27     8    1
    30     5    28   ar
    31    28    29    1
    32    28    30   ar
    33    30     2   ar
    34     1    31    1
    35     1    32    1
    36     1    33    1
    37     3    34    1
    38     4    35    1
    39     6    36    1
    40     7    37    1
    41    13    38    1
    42    14    39    1
    43    16    40    1
    44    16    41    1
    45    16    42    1
    46    18    43    1
    47    18    44    1
    48    18    45    1
    49    19    46    1
    50    23    47    1
    51    24    48    1
    52    25    49    1
    53    26    50    1
    54    29    51    1
    55    30    52    1
