@<TRIPOS>MOLECULE

  60   63
SMALL
USER_CHARGES
@<TRIPOS>ATOM
   1 C1           7.1353     2.2563     0.9362 C.3          1    LIG   0.0000
   2 O2           6.5147     0.9805     0.9972 O.3          1    LIG   0.0000
   3 C3           5.1655     0.9903     0.9973 C.ar         1    LIG   0.0000
   4 C4           4.4858     2.2028     0.9407 C.ar         1    LIG   0.0000
   5 C5           3.0951     2.2032     0.9417 C.ar         1    LIG   0.0000
   6 C6           2.3998     1.0000     1.0000 C.ar         1    LIG   0.0000
   7 N7           1.0000     1.0000     1.0000 N.pl3        1    LIG   0.0000
   8 C8           0.3150     2.1852     0.9452 C.2          1    LIG   0.0000
   9 C9          -0.7782     2.2853     0.2017 C.2          1    LIG   0.0000
  10 C10         -1.4910     3.5443     0.1541 C.2          1    LIG   0.0000
  11 O11         -1.0343     4.5014     0.7600 O.2          1    LIG   0.0000
  12 N12         -2.6822     3.6442    -0.5701 N.am         1    LIG   0.0000
  13 C13         -3.3581     4.8700    -0.5794 C.ar         1    LIG   0.0000
  14 C14         -4.3087     5.1271     0.4028 C.ar         1    LIG   0.0000
  15 C15         -4.9781     6.3463     0.3894 C.ar         1    LIG   0.0000
  16 C16         -4.7014     7.2934    -0.5905 C.ar         1    LIG   0.0000
  17 C17         -5.4595     8.6108    -0.5629 C.3          1    LIG   0.0000
  18 C18         -3.7475     7.0248    -1.5682 C.ar         1    LIG   0.0000
  19 C19         -3.4205     8.0376    -2.6540 C.3          1    LIG   0.0000
  20 C20         -3.0717     5.8091    -1.5652 C.ar         1    LIG   0.0000
  21 C21         -3.2065     2.5506    -1.2741 C.2          1    LIG   0.0000
  22 O22         -4.2605     2.7066    -1.8737 O.2          1    LIG   0.0000
  23 C23         -2.4985     1.2838    -1.2788 C.ar         1    LIG   0.0000
  24 C24         -2.9890     0.1862    -1.9779 C.ar         1    LIG   0.0000
  25 C25         -2.2991    -1.0201    -1.9638 C.ar         1    LIG   0.0000
  26 C26         -1.1139    -1.1322    -1.2457 C.ar         1    LIG   0.0000
  27 C27         -0.6178    -0.0457    -0.5389 C.ar         1    LIG   0.0000
  28 C28         -1.3126     1.1600    -0.5530 C.ar         1    LIG   0.0000
  29 C29          3.0760    -0.2140     1.0561 C.ar         1    LIG   0.0000
  30 C30          4.4665    -0.2101     1.0548 C.ar         1    LIG   0.0000
  31 N31          5.1651    -1.4216     1.1129 N.pl3        1    LIG   0.0000
  32 S32          4.7857    -2.6311     0.0883 S.o2         1    LIG   0.0000
  33 C33          3.1660    -3.3087     0.5281 C.3          1    LIG   0.0000
  34 O34          4.7441    -2.1238    -1.2588 O.2          1    LIG   0.0000
  35 O35          5.7808    -3.6680     0.1802 O.2          1    LIG   0.0000
  36 H            8.1290     2.1442     0.9411 H            1    LIG   0.0000
  37 H            6.8566     2.7227     0.0966 H            1    LIG   0.0000
  38 H            6.8573     2.8004     1.7277 H            1    LIG   0.0000
  39 H            4.9915     3.0645     0.8999 H            1    LIG   0.0000
  40 H            2.5952     3.0683     0.9005 H            1    LIG   0.0000
  41 H            0.5000     0.1349     1.0400 H            1    LIG   0.0000
  42 H            0.6395     2.9748     1.4660 H            1    LIG   0.0000
  43 H           -4.5078     4.4462     1.1076 H            1    LIG   0.0000
  44 H           -5.6639     6.5434     1.0901 H            1    LIG   0.0000
  45 H           -6.0955     8.6133     0.2088 H            1    LIG   0.0000
  46 H           -4.8118     9.3661    -0.4635 H            1    LIG   0.0000
  47 H           -5.9700     8.7196    -1.4159 H            1    LIG   0.0000
  48 H           -2.7158     7.6639    -3.2571 H            1    LIG   0.0000
  49 H           -4.2443     8.2342    -3.1856 H            1    LIG   0.0000
  50 H           -3.0861     8.8810    -2.2333 H            1    LIG   0.0000
  51 H           -2.3857     5.6118    -2.2656 H            1    LIG   0.0000
  52 H           -3.8423     0.2654    -2.4932 H            1    LIG   0.0000
  53 H           -2.6545    -1.8062    -2.4695 H            1    LIG   0.0000
  54 H           -0.6166    -1.9998    -1.2384 H            1    LIG   0.0000
  55 H            0.2344    -0.1287    -0.0222 H            1    LIG   0.0000
  56 H            2.5704    -1.0758     1.0968 H            1    LIG   0.0000
  57 H            5.8970    -1.5450     1.7830 H            1    LIG   0.0000
  58 H            3.1949    -3.6610     1.4635 H            1    LIG   0.0000
  59 H            2.4749    -2.5887     0.4643 H            1    LIG   0.0000
  60 H            2.9332    -4.0508    -0.1005 H            1    LIG   0.0000
@<TRIPOS>BOND
   1        1        2 1
   2        2        3 1
   3        3        4 ar
   4        4        5 ar
   5        5        6 ar
   6        6        7 1
   7        7        8 1
   8        8        9 2
   9        9       10 1
  10       10       11 2
  11       10       12 am
  12       12       13 1
  13       13       14 ar
  14       14       15 ar
  15       15       16 ar
  16       16       17 1
  17       16       18 ar
  18       18       19 1
  19       18       20 ar
  20       20       13 ar
  21       12       21 am
  22       21       22 2
  23       21       23 1
  24       23       24 ar
  25       24       25 ar
  26       25       26 ar
  27       26       27 ar
  28       27       28 ar
  29       28       23 ar
  30       28        9 1
  31        6       29 ar
  32       29       30 ar
  33       30        3 ar
  34       30       31 1
  35       31       32 1
  36       32       33 1
  37       32       34 2
  38       32       35 2
  39        1       36 1
  40        1       37 1
  41        1       38 1
  42        4       39 1
  43        5       40 1
  44        7       41 1
  45        8       42 1
  46       14       43 1
  47       15       44 1
  48       17       45 1
  49       17       46 1
  50       17       47 1
  51       19       48 1
  52       19       49 1
  53       19       50 1
  54       20       51 1
  55       24       52 1
  56       25       53 1
  57       26       54 1
  58       27       55 1
  59       29       56 1
  60       31       57 1
  61       33       58 1
  62       33       59 1
  63       33       60 1

@<TRIPOS>MOLECULE

  60   63
SMALL
USER_CHARGES
@<TRIPOS>ATOM
   1 C1           7.1353     2.2563     0.9362 C.3          1    LIG   0.0000
   2 O2           6.5147     0.9805     0.9972 O.3          1    LIG   0.0000
   3 C3           5.1655     0.9903     0.9973 C.ar         1    LIG   0.0000
   4 C4           4.4858     2.2028     0.9407 C.ar         1    LIG   0.0000
   5 C5           3.0951     2.2032     0.9417 C.ar         1    LIG   0.0000
   6 C6           2.3998     1.0000     1.0000 C.ar         1    LIG   0.0000
   7 N7           1.0000     1.0000     1.0000 N.pl3        1    LIG   0.0000
   8 C8           0.3150     2.1852     0.9452 C.2          1    LIG   0.0000
   9 C9          -0.7782     2.2853     0.2017 C.2          1    LIG   0.0000
  10 C10         -1.4910     3.5443     0.1541 C.2          1    LIG   0.0000
  11 O11         -1.0343     4.5014     0.7600 O.2          1    LIG   0.0000
  12 N12         -2.6822     3.6442    -0.5701 N.am         1    LIG   0.0000
  13 C13         -3.3581     4.8700    -0.5794 C.ar         1    LIG   0.0000
  14 C14         -3.0620     5.7997    -1.5705 C.ar         1    LIG   0.0000
  15 C15         -3.7359     7.0165    -1.5756 C.ar         1    LIG   0.0000
  16 C16         -4.6908     7.2991    -0.6049 C.ar         1    LIG   0.0000
  17 C17         -5.4001     8.6429    -0.6527 C.3          1    LIG   0.0000
  18 C18         -4.9789     6.3605     0.3819 C.ar         1    LIG   0.0000
  19 C19         -6.0169     6.6369     1.4579 C.3          1    LIG   0.0000
  20 C20         -4.3115     5.1403     0.3973 C.ar         1    LIG   0.0000
  21 C21         -3.2065     2.5506    -1.2741 C.2          1    LIG   0.0000
  22 O22         -4.2605     2.7066    -1.8737 O.2          1    LIG   0.0000
  23 C23         -2.4985     1.2838    -1.2788 C.ar         1    LIG   0.0000
  24 C24         -2.9890     0.1862    -1.9779 C.ar         1    LIG   0.0000
  25 C25         -2.2991    -1.0201    -1.9638 C.ar         1    LIG   0.0000
  26 C26         -1.1139    -1.1322    -1.2457 C.ar         1    LIG   0.0000
  27 C27         -0.6178    -0.0457    -0.5389 C.ar         1    LIG   0.0000
  28 C28         -1.3126     1.1600    -0.5530 C.ar         1    LIG   0.0000
  29 C29          3.0760    -0.2140     1.0561 C.ar         1    LIG   0.0000
  30 C30          4.4665    -0.2101     1.0548 C.ar         1    LIG   0.0000
  31 N31          5.1651    -1.4216     1.1129 N.pl3        1    LIG   0.0000
  32 S32          4.7857    -2.6311     0.0883 S.o2         1    LIG   0.0000
  33 C33          3.1660    -3.3087     0.5281 C.3          1    LIG   0.0000
  34 O34          4.7441    -2.1238    -1.2588 O.2          1    LIG   0.0000
  35 O35          5.7808    -3.6680     0.1802 O.2          1    LIG   0.0000
  36 H            8.1290     2.1442     0.9411 H            1    LIG   0.0000
  37 H            6.8566     2.7227     0.0966 H            1    LIG   0.0000
  38 H            6.8573     2.8004     1.7277 H            1    LIG   0.0000
  39 H            4.9915     3.0645     0.8999 H            1    LIG   0.0000
  40 H            2.5952     3.0683     0.9005 H            1    LIG   0.0000
  41 H            0.5000     0.1349     1.0400 H            1    LIG   0.0000
  42 H            0.6395     2.9748     1.4660 H            1    LIG   0.0000
  43 H           -2.3754     5.5965    -2.2686 H            1    LIG   0.0000
  44 H           -3.5321     7.6934    -2.2829 H            1    LIG   0.0000
  45 H           -5.0579     9.1731    -1.4284 H            1    LIG   0.0000
  46 H           -6.3840     8.4969    -0.7567 H            1    LIG   0.0000
  47 H           -5.2251     9.1425     0.1957 H            1    LIG   0.0000
  48 H           -6.0807     5.8486     2.0698 H            1    LIG   0.0000
  49 H           -5.7469     7.4447     1.9819 H            1    LIG   0.0000
  50 H           -6.9059     6.7992     1.0296 H            1    LIG   0.0000
  51 H           -4.5151     4.4630     1.1043 H            1    LIG   0.0000
  52 H           -3.8423     0.2654    -2.4932 H            1    LIG   0.0000
  53 H           -2.6545    -1.8062    -2.4695 H            1    LIG   0.0000
  54 H           -0.6166    -1.9998    -1.2384 H            1    LIG   0.0000
  55 H            0.2344    -0.1287    -0.0222 H            1    LIG   0.0000
  56 H            2.5704    -1.0758     1.0968 H            1    LIG   0.0000
  57 H            5.8970    -1.5450     1.7830 H            1    LIG   0.0000
  58 H            3.1949    -3.6610     1.4635 H            1    LIG   0.0000
  59 H            2.4749    -2.5887     0.4643 H            1    LIG   0.0000
  60 H            2.9332    -4.0508    -0.1005 H            1    LIG   0.0000
@<TRIPOS>BOND
   1        1        2 1
   2        2        3 1
   3        3        4 ar
   4        4        5 ar
   5        5        6 ar
   6        6        7 1
   7        7        8 1
   8        8        9 2
   9        9       10 1
  10       10       11 2
  11       10       12 am
  12       12       13 1
  13       13       14 ar
  14       14       15 ar
  15       15       16 ar
  16       16       17 1
  17       16       18 ar
  18       18       19 1
  19       18       20 ar
  20       20       13 ar
  21       12       21 am
  22       21       22 2
  23       21       23 1
  24       23       24 ar
  25       24       25 ar
  26       25       26 ar
  27       26       27 ar
  28       27       28 ar
  29       28       23 ar
  30       28        9 1
  31        6       29 ar
  32       29       30 ar
  33       30        3 ar
  34       30       31 1
  35       31       32 1
  36       32       33 1
  37       32       34 2
  38       32       35 2
  39        1       36 1
  40        1       37 1
  41        1       38 1
  42        4       39 1
  43        5       40 1
  44        7       41 1
  45        8       42 1
  46       14       43 1
  47       15       44 1
  48       17       45 1
  49       17       46 1
  50       17       47 1
  51       19       48 1
  52       19       49 1
  53       19       50 1
  54       20       51 1
  55       24       52 1
  56       25       53 1
  57       26       54 1
  58       27       55 1
  59       29       56 1
  60       31       57 1
  61       33       58 1
  62       33       59 1
  63       33       60 1

@<TRIPOS>MOLECULE

  60   63
SMALL
USER_CHARGES
@<TRIPOS>ATOM
   1 C1           7.1353     2.2563     0.9362 C.3          1    LIG   0.0000
   2 O2           6.5147     0.9805     0.9972 O.3          1    LIG   0.0000
   3 C3           5.1655     0.9903     0.9973 C.ar         1    LIG   0.0000
   4 C4           4.4858     2.2028     0.9407 C.ar         1    LIG   0.0000
   5 C5           3.0951     2.2032     0.9417 C.ar         1    LIG   0.0000
   6 C6           2.3998     1.0000     1.0000 C.ar         1    LIG   0.0000
   7 N7           1.0000     1.0000     1.0000 N.pl3        1    LIG   0.0000
   8 C8           0.3150     2.1852     0.9452 C.2          1    LIG   0.0000
   9 C9          -0.7782     2.2853     0.2017 C.2          1    LIG   0.0000
  10 C10         -1.4910     3.5443     0.1541 C.2          1    LIG   0.0000
  11 O11         -1.0343     4.5014     0.7600 O.2          1    LIG   0.0000
  12 N12         -2.6822     3.6442    -0.5701 N.am         1    LIG   0.0000
  13 C13         -3.3581     4.8700    -0.5794 C.ar         1    LIG   0.0000
  14 C14         -2.8236     5.9440     0.1244 C.ar         1    LIG   0.0000
  15 C15         -3.4989     7.1599     0.1126 C.ar         1    LIG   0.0000
  16 C16         -4.6898     7.2998    -0.5917 C.ar         1    LIG   0.0000
  17 C17         -5.3906     8.6487    -0.5741 C.3          1    LIG   0.0000
  18 C18         -5.2149     6.2178    -1.2927 C.ar         1    LIG   0.0000
  19 C19         -6.5144     6.3359    -2.0730 C.3          1    LIG   0.0000
  20 C20         -4.5486     4.9968    -1.2883 C.ar         1    LIG   0.0000
  21 C21         -3.2065     2.5506    -1.2741 C.2          1    LIG   0.0000
  22 O22         -4.2605     2.7066    -1.8737 O.2          1    LIG   0.0000
  23 C23         -2.4985     1.2838    -1.2788 C.ar         1    LIG   0.0000
  24 C24         -2.9890     0.1862    -1.9779 C.ar         1    LIG   0.0000
  25 C25         -2.2991    -1.0201    -1.9638 C.ar         1    LIG   0.0000
  26 C26         -1.1139    -1.1322    -1.2457 C.ar         1    LIG   0.0000
  27 C27         -0.6178    -0.0457    -0.5389 C.ar         1    LIG   0.0000
  28 C28         -1.3126     1.1600    -0.5530 C.ar         1    LIG   0.0000
  29 C29          3.0760    -0.2140     1.0561 C.ar         1    LIG   0.0000
  30 C30          4.4665    -0.2101     1.0548 C.ar         1    LIG   0.0000
  31 N31          5.1651    -1.4216     1.1129 N.pl3        1    LIG   0.0000
  32 S32          5.7844    -2.0713    -0.2477 S.o2         1    LIG   0.0000
  33 C33          7.1736    -1.0621    -0.8201 C.3          1    LIG   0.0000
  34 O34          6.2429    -3.4089     0.0247 O.2          1    LIG   0.0000
  35 O35          4.7677    -2.1106    -1.2667 O.2          1    LIG   0.0000
  36 H            8.1290     2.1442     0.9411 H            1    LIG   0.0000
  37 H            6.8566     2.7227     0.0966 H            1    LIG   0.0000
  38 H            6.8573     2.8004     1.7277 H            1    LIG   0.0000
  39 H            4.9915     3.0645     0.8999 H            1    LIG   0.0000
  40 H            2.5952     3.0683     0.9005 H            1    LIG   0.0000
  41 H            0.5000     0.1349     1.0400 H            1    LIG   0.0000
  42 H            0.6395     2.9748     1.4660 H            1    LIG   0.0000
  43 H           -1.9672     5.8436     0.6309 H            1    LIG   0.0000
  44 H           -3.1250     7.9398     0.6146 H            1    LIG   0.0000
  45 H           -4.8617     9.2919    -0.0204 H            1    LIG   0.0000
  46 H           -5.4666     8.9971    -1.5083 H            1    LIG   0.0000
  47 H           -6.3046     8.5444    -0.1818 H            1    LIG   0.0000
  48 H           -6.7246     5.4589    -2.5052 H            1    LIG   0.0000
  49 H           -7.2555     6.5868    -1.4503 H            1    LIG   0.0000
  50 H           -6.4177     7.0396    -2.7769 H            1    LIG   0.0000
  51 H           -4.9220     4.2167    -1.7903 H            1    LIG   0.0000
  52 H           -3.8423     0.2654    -2.4932 H            1    LIG   0.0000
  53 H           -2.6545    -1.8062    -2.4695 H            1    LIG   0.0000
  54 H           -0.6166    -1.9998    -1.2384 H            1    LIG   0.0000
  55 H            0.2344    -0.1287    -0.0222 H            1    LIG   0.0000
  56 H            2.5704    -1.0758     1.0968 H            1    LIG   0.0000
  57 H            5.2843    -1.8885     1.9891 H            1    LIG   0.0000
  58 H            6.8552    -0.1332    -1.0093 H            1    LIG   0.0000
  59 H            7.8796    -1.0348    -0.1125 H            1    LIG   0.0000
  60 H            7.5535    -1.4607    -1.6548 H            1    LIG   0.0000
@<TRIPOS>BOND
   1        1        2 1
   2        2        3 1
   3        3        4 ar
   4        4        5 ar
   5        5        6 ar
   6        6        7 1
   7        7        8 1
   8        8        9 2
   9        9       10 1
  10       10       11 2
  11       10       12 am
  12       12       13 1
  13       13       14 ar
  14       14       15 ar
  15       15       16 ar
  16       16       17 1
  17       16       18 ar
  18       18       19 1
  19       18       20 ar
  20       20       13 ar
  21       12       21 am
  22       21       22 2
  23       21       23 1
  24       23       24 ar
  25       24       25 ar
  26       25       26 ar
  27       26       27 ar
  28       27       28 ar
  29       28       23 ar
  30       28        9 1
  31        6       29 ar
  32       29       30 ar
  33       30        3 ar
  34       30       31 1
  35       31       32 1
  36       32       33 1
  37       32       34 2
  38       32       35 2
  39        1       36 1
  40        1       37 1
  41        1       38 1
  42        4       39 1
  43        5       40 1
  44        7       41 1
  45        8       42 1
  46       14       43 1
  47       15       44 1
  48       17       45 1
  49       17       46 1
  50       17       47 1
  51       19       48 1
  52       19       49 1
  53       19       50 1
  54       20       51 1
  55       24       52 1
  56       25       53 1
  57       26       54 1
  58       27       55 1
  59       29       56 1
  60       31       57 1
  61       33       58 1
  62       33       59 1
  63       33       60 1

@<TRIPOS>MOLECULE

  60   63
SMALL
USER_CHARGES
@<TRIPOS>ATOM
   1 C1           7.1353     2.2563     0.9362 C.3          1    LIG   0.0000
   2 O2           6.5147     0.9805     0.9972 O.3          1    LIG   0.0000
   3 C3           5.1655     0.9903     0.9973 C.ar         1    LIG   0.0000
   4 C4           4.4858     2.2028     0.9407 C.ar         1    LIG   0.0000
   5 C5           3.0951     2.2032     0.9417 C.ar         1    LIG   0.0000
   6 C6           2.3998     1.0000     1.0000 C.ar         1    LIG   0.0000
   7 N7           1.0000     1.0000     1.0000 N.pl3        1    LIG   0.0000
   8 C8           0.3150     2.1852     0.9452 C.2          1    LIG   0.0000
   9 C9          -0.7782     2.2853     0.2017 C.2          1    LIG   0.0000
  10 C10         -1.4910     3.5443     0.1541 C.2          1    LIG   0.0000
  11 O11         -1.0343     4.5014     0.7600 O.2          1    LIG   0.0000
  12 N12         -2.6822     3.6442    -0.5701 N.am         1    LIG   0.0000
  13 C13         -3.3581     4.8700    -0.5794 C.ar         1    LIG   0.0000
  14 C14         -2.8236     5.9440     0.1244 C.ar         1    LIG   0.0000
  15 C15         -3.4989     7.1599     0.1126 C.ar         1    LIG   0.0000
  16 C16         -4.6898     7.2998    -0.5917 C.ar         1    LIG   0.0000
  17 C17         -5.3906     8.6487    -0.5741 C.3          1    LIG   0.0000
  18 C18         -5.2149     6.2178    -1.2927 C.ar         1    LIG   0.0000
  19 C19         -6.5144     6.3359    -2.0730 C.3          1    LIG   0.0000
  20 C20         -4.5486     4.9968    -1.2883 C.ar         1    LIG   0.0000
  21 C21         -3.2065     2.5506    -1.2741 C.2          1    LIG   0.0000
  22 O22         -4.2605     2.7066    -1.8737 O.2          1    LIG   0.0000
  23 C23         -2.4985     1.2838    -1.2788 C.ar         1    LIG   0.0000
  24 C24         -2.9890     0.1862    -1.9779 C.ar         1    LIG   0.0000
  25 C25         -2.2991    -1.0201    -1.9638 C.ar         1    LIG   0.0000
  26 C26         -1.1139    -1.1322    -1.2457 C.ar         1    LIG   0.0000
  27 C27         -0.6178    -0.0457    -0.5389 C.ar         1    LIG   0.0000
  28 C28         -1.3126     1.1600    -0.5530 C.ar         1    LIG   0.0000
  29 C29          3.0760    -0.2140     1.0561 C.ar         1    LIG   0.0000
  30 C30          4.4665    -0.2101     1.0548 C.ar         1    LIG   0.0000
  31 N31          5.1651    -1.4216     1.1129 N.pl3        1    LIG   0.0000
  32 S32          4.7856    -2.5276     2.2485 S.o2         1    LIG   0.0000
  33 C33          3.1659    -3.2441     1.8754 C.3          1    LIG   0.0000
  34 O34          5.7807    -3.5685     2.2563 O.2          1    LIG   0.0000
  35 O35          4.7439    -1.8938     3.5408 O.2          1    LIG   0.0000
  36 H            8.1290     2.1442     0.9411 H            1    LIG   0.0000
  37 H            6.8566     2.7227     0.0966 H            1    LIG   0.0000
  38 H            6.8573     2.8004     1.7277 H            1    LIG   0.0000
  39 H            4.9915     3.0645     0.8999 H            1    LIG   0.0000
  40 H            2.5952     3.0683     0.9005 H            1    LIG   0.0000
  41 H            0.5000     0.1349     1.0400 H            1    LIG   0.0000
  42 H            0.6395     2.9748     1.4660 H            1    LIG   0.0000
  43 H           -1.9672     5.8436     0.6309 H            1    LIG   0.0000
  44 H           -3.1250     7.9398     0.6146 H            1    LIG   0.0000
  45 H           -4.8617     9.2919    -0.0204 H            1    LIG   0.0000
  46 H           -5.4666     8.9971    -1.5083 H            1    LIG   0.0000
  47 H           -6.3046     8.5444    -0.1818 H            1    LIG   0.0000
  48 H           -6.7246     5.4589    -2.5052 H            1    LIG   0.0000
  49 H           -7.2555     6.5868    -1.4503 H            1    LIG   0.0000
  50 H           -6.4177     7.0396    -2.7769 H            1    LIG   0.0000
  51 H           -4.9220     4.2167    -1.7903 H            1    LIG   0.0000
  52 H           -3.8423     0.2654    -2.4932 H            1    LIG   0.0000
  53 H           -2.6545    -1.8062    -2.4695 H            1    LIG   0.0000
  54 H           -0.6166    -1.9998    -1.2384 H            1    LIG   0.0000
  55 H            0.2344    -0.1287    -0.0222 H            1    LIG   0.0000
  56 H            2.5704    -1.0758     1.0968 H            1    LIG   0.0000
  57 H            5.8971    -1.6086     0.4577 H            1    LIG   0.0000
  58 H            2.4749    -2.5213     1.8700 H            1    LIG   0.0000
  59 H            3.1949    -3.6843     0.9779 H            1    LIG   0.0000
  60 H            2.9331    -3.9227     2.5721 H            1    LIG   0.0000
@<TRIPOS>BOND
   1        1        2 1
   2        2        3 1
   3        3        4 ar
   4        4        5 ar
   5        5        6 ar
   6        6        7 1
   7        7        8 1
   8        8        9 2
   9        9       10 1
  10       10       11 2
  11       10       12 am
  12       12       13 1
  13       13       14 ar
  14       14       15 ar
  15       15       16 ar
  16       16       17 1
  17       16       18 ar
  18       18       19 1
  19       18       20 ar
  20       20       13 ar
  21       12       21 am
  22       21       22 2
  23       21       23 1
  24       23       24 ar
  25       24       25 ar
  26       25       26 ar
  27       26       27 ar
  28       27       28 ar
  29       28       23 ar
  30       28        9 1
  31        6       29 ar
  32       29       30 ar
  33       30        3 ar
  34       30       31 1
  35       31       32 1
  36       32       33 1
  37       32       34 2
  38       32       35 2
  39        1       36 1
  40        1       37 1
  41        1       38 1
  42        4       39 1
  43        5       40 1
  44        7       41 1
  45        8       42 1
  46       14       43 1
  47       15       44 1
  48       17       45 1
  49       17       46 1
  50       17       47 1
  51       19       48 1
  52       19       49 1
  53       19       50 1
  54       20       51 1
  55       24       52 1
  56       25       53 1
  57       26       54 1
  58       27       55 1
  59       29       56 1
  60       31       57 1
  61       33       58 1
  62       33       59 1
  63       33       60 1

@<TRIPOS>MOLECULE

  60   63
SMALL
USER_CHARGES
@<TRIPOS>ATOM
   1 C1           7.1353     2.2563     0.9362 C.3          1    LIG   0.0000
   2 O2           6.5147     0.9805     0.9972 O.3          1    LIG   0.0000
   3 C3           5.1655     0.9903     0.9973 C.ar         1    LIG   0.0000
   4 C4           4.4858     2.2028     0.9407 C.ar         1    LIG   0.0000
   5 C5           3.0951     2.2032     0.9417 C.ar         1    LIG   0.0000
   6 C6           2.3998     1.0000     1.0000 C.ar         1    LIG   0.0000
   7 N7           1.0000     1.0000     1.0000 N.pl3        1    LIG   0.0000
   8 C8           0.3150     2.1852     0.9452 C.2          1    LIG   0.0000
   9 C9          -0.7782     2.2853     0.2017 C.2          1    LIG   0.0000
  10 C10         -1.4910     3.5443     0.1541 C.2          1    LIG   0.0000
  11 O11         -1.0343     4.5014     0.7600 O.2          1    LIG   0.0000
  12 N12         -2.6822     3.6442    -0.5701 N.am         1    LIG   0.0000
  13 C13         -3.3581     4.8700    -0.5794 C.ar         1    LIG   0.0000
  14 C14         -4.5471     4.9828    -1.2921 C.ar         1    LIG   0.0000
  15 C15         -5.2151     6.2028    -1.2988 C.ar         1    LIG   0.0000
  16 C16         -4.7024     7.2928    -0.6038 C.ar         1    LIG   0.0000
  17 C17         -5.4690     8.6050    -0.6415 C.3          1    LIG   0.0000
  18 C18         -3.5116     7.1676     0.1064 C.ar         1    LIG   0.0000
  19 C19         -2.9230     8.3386     0.8770 C.3          1    LIG   0.0000
  20 C20         -2.8346     5.9526     0.1204 C.ar         1    LIG   0.0000
  21 C21         -3.2065     2.5506    -1.2741 C.2          1    LIG   0.0000
  22 O22         -4.2605     2.7066    -1.8737 O.2          1    LIG   0.0000
  23 C23         -2.4985     1.2838    -1.2788 C.ar         1    LIG   0.0000
  24 C24         -2.9890     0.1862    -1.9779 C.ar         1    LIG   0.0000
  25 C25         -2.2991    -1.0201    -1.9638 C.ar         1    LIG   0.0000
  26 C26         -1.1139    -1.1322    -1.2457 C.ar         1    LIG   0.0000
  27 C27         -0.6178    -0.0457    -0.5389 C.ar         1    LIG   0.0000
  28 C28         -1.3126     1.1600    -0.5530 C.ar         1    LIG   0.0000
  29 C29          3.0760    -0.2140     1.0561 C.ar         1    LIG   0.0000
  30 C30          4.4665    -0.2101     1.0548 C.ar         1    LIG   0.0000
  31 N31          5.1651    -1.4216     1.1129 N.pl3        1    LIG   0.0000
  32 S32          4.7856    -2.5276     2.2485 S.o2         1    LIG   0.0000
  33 C33          3.5125    -3.6413     1.6044 C.3          1    LIG   0.0000
  34 O34          5.9602    -3.2876     2.5898 O.2          1    LIG   0.0000
  35 O35          4.2887    -1.8587     3.4229 O.2          1    LIG   0.0000
  36 H            8.1290     2.1442     0.9411 H            1    LIG   0.0000
  37 H            6.8566     2.7227     0.0966 H            1    LIG   0.0000
  38 H            6.8573     2.8004     1.7277 H            1    LIG   0.0000
  39 H            4.9915     3.0645     0.8999 H            1    LIG   0.0000
  40 H            2.5952     3.0683     0.9005 H            1    LIG   0.0000
  41 H            0.5000     0.1349     1.0400 H            1    LIG   0.0000
  42 H            0.6395     2.9748     1.4660 H            1    LIG   0.0000
  43 H           -4.9160     4.1991    -1.7919 H            1    LIG   0.0000
  44 H           -6.0710     6.2969    -1.8074 H            1    LIG   0.0000
  45 H           -6.2917     8.4944    -1.1992 H            1    LIG   0.0000
  46 H           -5.7291     8.8659     0.2881 H            1    LIG   0.0000
  47 H           -4.8906     9.3177    -1.0383 H            1    LIG   0.0000
  48 H           -2.0720     8.0535     1.3179 H            1    LIG   0.0000
  49 H           -2.7357     9.0920     0.2466 H            1    LIG   0.0000
  50 H           -3.5743     8.6406     1.5732 H            1    LIG   0.0000
  51 H           -1.9788     5.8581     0.6291 H            1    LIG   0.0000
  52 H           -3.8423     0.2654    -2.4932 H            1    LIG   0.0000
  53 H           -2.6545    -1.8062    -2.4695 H            1    LIG   0.0000
  54 H           -0.6166    -1.9998    -1.2384 H            1    LIG   0.0000
  55 H            0.2344    -0.1287    -0.0222 H            1    LIG   0.0000
  56 H            2.5704    -1.0758     1.0968 H            1    LIG   0.0000
  57 H            5.8971    -1.6086     0.4577 H            1    LIG   0.0000
  58 H            2.6968    -3.1135     1.3674 H            1    LIG   0.0000
  59 H            3.8575    -4.1058     0.7888 H            1    LIG   0.0000
  60 H            3.2796    -4.3198     2.3011 H            1    LIG   0.0000
@<TRIPOS>BOND
   1        1        2 1
   2        2        3 1
   3        3        4 ar
   4        4        5 ar
   5        5        6 ar
   6        6        7 1
   7        7        8 1
   8        8        9 2
   9        9       10 1
  10       10       11 2
  11       10       12 am
  12       12       13 1
  13       13       14 ar
  14       14       15 ar
  15       15       16 ar
  16       16       17 1
  17       16       18 ar
  18       18       19 1
  19       18       20 ar
  20       20       13 ar
  21       12       21 am
  22       21       22 2
  23       21       23 1
  24       23       24 ar
  25       24       25 ar
  26       25       26 ar
  27       26       27 ar
  28       27       28 ar
  29       28       23 ar
  30       28        9 1
  31        6       29 ar
  32       29       30 ar
  33       30        3 ar
  34       30       31 1
  35       31       32 1
  36       32       33 1
  37       32       34 2
  38       32       35 2
  39        1       36 1
  40        1       37 1
  41        1       38 1
  42        4       39 1
  43        5       40 1
  44        7       41 1
  45        8       42 1
  46       14       43 1
  47       15       44 1
  48       17       45 1
  49       17       46 1
  50       17       47 1
  51       19       48 1
  52       19       49 1
  53       19       50 1
  54       20       51 1
  55       24       52 1
  56       25       53 1
  57       26       54 1
  58       27       55 1
  59       29       56 1
  60       31       57 1
  61       33       58 1
  62       33       59 1
  63       33       60 1

@<TRIPOS>MOLECULE

  60   63
SMALL
USER_CHARGES
@<TRIPOS>ATOM
   1 C1           7.1353     2.0034     1.7586 C.3          1    LIG   0.0000
   2 O2           6.5147     0.9869     0.9853 O.3          1    LIG   0.0000
   3 C3           5.1655     0.9943     0.9917 C.ar         1    LIG   0.0000
   4 C4           4.4858     1.9595     1.7278 C.ar         1    LIG   0.0000
   5 C5           3.0951     1.9592     1.7288 C.ar         1    LIG   0.0000
   6 C6           2.3998     1.0000     1.0000 C.ar         1    LIG   0.0000
   7 N7           1.0000     1.0000     1.0000 N.pl3        1    LIG   0.0000
   8 C8           0.3150     2.1852     0.9452 C.2          1    LIG   0.0000
   9 C9          -0.7782     2.2853     0.2017 C.2          1    LIG   0.0000
  10 C10         -1.4910     3.5443     0.1541 C.2          1    LIG   0.0000
  11 O11         -1.0343     4.5014     0.7600 O.2          1    LIG   0.0000
  12 N12         -2.6822     3.6442    -0.5701 N.am         1    LIG   0.0000
  13 C13         -3.3581     4.8700    -0.5794 C.ar         1    LIG   0.0000
  14 C14         -4.4258     5.0485    -1.4527 C.ar         1    LIG   0.0000
  15 C15         -5.0942     6.2683    -1.4586 C.ar         1    LIG   0.0000
  16 C16         -4.7014     7.2933    -0.6049 C.ar         1    LIG   0.0000
  17 C17         -5.4633     8.6081    -0.6488 C.3          1    LIG   0.0000
  18 C18         -3.6315     7.1027     0.2651 C.ar         1    LIG   0.0000
  19 C19         -3.1757     8.2018     1.2116 C.3          1    LIG   0.0000
  20 C20         -2.9552     5.8873     0.2801 C.ar         1    LIG   0.0000
  21 C21         -3.2065     2.5506    -1.2741 C.2          1    LIG   0.0000
  22 O22         -4.2605     2.7066    -1.8737 O.2          1    LIG   0.0000
  23 C23         -2.4985     1.2838    -1.2788 C.ar         1    LIG   0.0000
  24 C24         -2.9890     0.1862    -1.9779 C.ar         1    LIG   0.0000
  25 C25         -2.2991    -1.0201    -1.9638 C.ar         1    LIG   0.0000
  26 C26         -1.1139    -1.1322    -1.2457 C.ar         1    LIG   0.0000
  27 C27         -0.6178    -0.0457    -0.5389 C.ar         1    LIG   0.0000
  28 C28         -1.3126     1.1600    -0.5530 C.ar         1    LIG   0.0000
  29 C29          3.0760     0.0340     0.2627 C.ar         1    LIG   0.0000
  30 C30          4.4665     0.0378     0.2641 C.ar         1    LIG   0.0000
  31 N31          5.1651    -0.9276    -0.4701 N.pl3        1    LIG   0.0000
  32 S32          4.7857    -1.1956    -2.0325 S.o2         1    LIG   0.0000
  33 C33          3.1660    -1.9973    -2.1311 C.3          1    LIG   0.0000
  34 O34          4.7441     0.0589    -2.7383 O.2          1    LIG   0.0000
  35 O35          5.7808    -2.0489    -2.6285 O.2          1    LIG   0.0000
  36 H            8.1290     1.9143     1.6903 H            1    LIG   0.0000
  37 H            6.8566     2.9003     1.4153 H            1    LIG   0.0000
  38 H            6.8573     1.9114     2.7148 H            1    LIG   0.0000
  39 H            4.9915     2.6459     2.2504 H            1    LIG   0.0000
  40 H            2.5952     2.6484     2.2532 H            1    LIG   0.0000
  41 H            0.5000     0.1349     1.0400 H            1    LIG   0.0000
  42 H            0.6395     2.9748     1.4660 H            1    LIG   0.0000
  43 H           -4.7084     4.3115    -2.0666 H            1    LIG   0.0000
  44 H           -5.8635     6.4093    -2.0818 H            1    LIG   0.0000
  45 H           -6.1908     8.5491    -1.3324 H            1    LIG   0.0000
  46 H           -5.8636     8.7915     0.2490 H            1    LIG   0.0000
  47 H           -4.8367     9.3485    -0.8919 H            1    LIG   0.0000
  48 H           -2.3995     7.8762     1.7514 H            1    LIG   0.0000
  49 H           -2.9005     9.0045     0.6824 H            1    LIG   0.0000
  50 H           -3.9275     8.4477     1.8234 H            1    LIG   0.0000
  51 H           -2.1860     5.7459     0.9033 H            1    LIG   0.0000
  52 H           -3.8423     0.2654    -2.4932 H            1    LIG   0.0000
  53 H           -2.6545    -1.8062    -2.4695 H            1    LIG   0.0000
  54 H           -0.6166    -1.9998    -1.2384 H            1    LIG   0.0000
  55 H            0.2344    -0.1287    -0.0222 H            1    LIG   0.0000
  56 H            2.5704    -0.6524    -0.2602 H            1    LIG   0.0000
  57 H            5.8970    -1.4529    -0.0361 H            1    LIG   0.0000
  58 H            3.1949    -2.8685    -1.6410 H            1    LIG   0.0000
  59 H            2.4749    -1.4047    -1.7172 H            1    LIG   0.0000
  60 H            2.9332    -2.1617    -3.0896 H            1    LIG   0.0000
@<TRIPOS>BOND
   1        1        2 1
   2        2        3 1
   3        3        4 ar
   4        4        5 ar
   5        5        6 ar
   6        6        7 1
   7        7        8 1
   8        8        9 2
   9        9       10 1
  10       10       11 2
  11       10       12 am
  12       12       13 1
  13       13       14 ar
  14       14       15 ar
  15       15       16 ar
  16       16       17 1
  17       16       18 ar
  18       18       19 1
  19       18       20 ar
  20       20       13 ar
  21       12       21 am
  22       21       22 2
  23       21       23 1
  24       23       24 ar
  25       24       25 ar
  26       25       26 ar
  27       26       27 ar
  28       27       28 ar
  29       28       23 ar
  30       28        9 1
  31        6       29 ar
  32       29       30 ar
  33       30        3 ar
  34       30       31 1
  35       31       32 1
  36       32       33 1
  37       32       34 2
  38       32       35 2
  39        1       36 1
  40        1       37 1
  41        1       38 1
  42        4       39 1
  43        5       40 1
  44        7       41 1
  45        8       42 1
  46       14       43 1
  47       15       44 1
  48       17       45 1
  49       17       46 1
  50       17       47 1
  51       19       48 1
  52       19       49 1
  53       19       50 1
  54       20       51 1
  55       24       52 1
  56       25       53 1
  57       26       54 1
  58       27       55 1
  59       29       56 1
  60       31       57 1
  61       33       58 1
  62       33       59 1
  63       33       60 1

@<TRIPOS>MOLECULE

  60   63
SMALL
USER_CHARGES
@<TRIPOS>ATOM
   1 C1           7.1353     2.0034     1.7586 C.3          1    LIG   0.0000
   2 O2           6.5147     0.9869     0.9853 O.3          1    LIG   0.0000
   3 C3           5.1655     0.9943     0.9917 C.ar         1    LIG   0.0000
   4 C4           4.4858     1.9595     1.7278 C.ar         1    LIG   0.0000
   5 C5           3.0951     1.9592     1.7288 C.ar         1    LIG   0.0000
   6 C6           2.3998     1.0000     1.0000 C.ar         1    LIG   0.0000
   7 N7           1.0000     1.0000     1.0000 N.pl3        1    LIG   0.0000
   8 C8           0.3150     2.1852     0.9452 C.2          1    LIG   0.0000
   9 C9          -0.7782     2.2853     0.2017 C.2          1    LIG   0.0000
  10 C10         -1.4910     3.5443     0.1541 C.2          1    LIG   0.0000
  11 O11         -1.0343     4.5014     0.7600 O.2          1    LIG   0.0000
  12 N12         -2.6822     3.6442    -0.5701 N.am         1    LIG   0.0000
  13 C13         -3.3581     4.8700    -0.5794 C.ar         1    LIG   0.0000
  14 C14         -4.3087     5.1271     0.4028 C.ar         1    LIG   0.0000
  15 C15         -4.9781     6.3463     0.3894 C.ar         1    LIG   0.0000
  16 C16         -4.7014     7.2934    -0.5905 C.ar         1    LIG   0.0000
  17 C17         -5.4595     8.6108    -0.5629 C.3          1    LIG   0.0000
  18 C18         -3.7475     7.0248    -1.5682 C.ar         1    LIG   0.0000
  19 C19         -3.4205     8.0376    -2.6540 C.3          1    LIG   0.0000
  20 C20         -3.0717     5.8091    -1.5652 C.ar         1    LIG   0.0000
  21 C21         -3.2065     2.5506    -1.2741 C.2          1    LIG   0.0000
  22 O22         -4.2605     2.7066    -1.8737 O.2          1    LIG   0.0000
  23 C23         -2.4985     1.2838    -1.2788 C.ar         1    LIG   0.0000
  24 C24         -2.9890     0.1862    -1.9779 C.ar         1    LIG   0.0000
  25 C25         -2.2991    -1.0201    -1.9638 C.ar         1    LIG   0.0000
  26 C26         -1.1139    -1.1322    -1.2457 C.ar         1    LIG   0.0000
  27 C27         -0.6178    -0.0457    -0.5389 C.ar         1    LIG   0.0000
  28 C28         -1.3126     1.1600    -0.5530 C.ar         1    LIG   0.0000
  29 C29          3.0760     0.0340     0.2627 C.ar         1    LIG   0.0000
  30 C30          4.4665     0.0378     0.2641 C.ar         1    LIG   0.0000
  31 N31          5.1651    -0.9276    -0.4701 N.pl3        1    LIG   0.0000
  32 S32          4.7857    -1.1956    -2.0325 S.o2         1    LIG   0.0000
  33 C33          5.2949     0.2267    -3.0295 C.3          1    LIG   0.0000
  34 O34          5.4678    -2.3759    -2.4965 O.2          1    LIG   0.0000
  35 O35          3.3633    -1.3835    -2.1556 O.2          1    LIG   0.0000
  36 H            8.1290     1.9143     1.6903 H            1    LIG   0.0000
  37 H            6.8566     2.9003     1.4153 H            1    LIG   0.0000
  38 H            6.8573     1.9114     2.7148 H            1    LIG   0.0000
  39 H            4.9915     2.6459     2.2504 H            1    LIG   0.0000
  40 H            2.5952     2.6484     2.2532 H            1    LIG   0.0000
  41 H            0.5000     0.1349     1.0400 H            1    LIG   0.0000
  42 H            0.6395     2.9748     1.4660 H            1    LIG   0.0000
  43 H           -4.5078     4.4462     1.1076 H            1    LIG   0.0000
  44 H           -5.6639     6.5434     1.0901 H            1    LIG   0.0000
  45 H           -6.0955     8.6133     0.2088 H            1    LIG   0.0000
  46 H           -4.8118     9.3661    -0.4635 H            1    LIG   0.0000
  47 H           -5.9700     8.7196    -1.4159 H            1    LIG   0.0000
  48 H           -2.7158     7.6639    -3.2571 H            1    LIG   0.0000
  49 H           -4.2443     8.2342    -3.1856 H            1    LIG   0.0000
  50 H           -3.0861     8.8810    -2.2333 H            1    LIG   0.0000
  51 H           -2.3857     5.6118    -2.2656 H            1    LIG   0.0000
  52 H           -3.8423     0.2654    -2.4932 H            1    LIG   0.0000
  53 H           -2.6545    -1.8062    -2.4695 H            1    LIG   0.0000
  54 H           -0.6166    -1.9998    -1.2384 H            1    LIG   0.0000
  55 H            0.2344    -0.1287    -0.0222 H            1    LIG   0.0000
  56 H            2.5704    -0.6524    -0.2602 H            1    LIG   0.0000
  57 H            5.8970    -1.4529    -0.0361 H            1    LIG   0.0000
  58 H            4.8212     1.0463    -2.7073 H            1    LIG   0.0000
  59 H            6.2827     0.3572    -2.9440 H            1    LIG   0.0000
  60 H            5.0621     0.0623    -3.9880 H            1    LIG   0.0000
@<TRIPOS>BOND
   1        1        2 1
   2        2        3 1
   3        3        4 ar
   4        4        5 ar
   5        5        6 ar
   6        6        7 1
   7        7        8 1
   8        8        9 2
   9        9       10 1
  10       10       11 2
  11       10       12 am
  12       12       13 1
  13       13       14 ar
  14       14       15 ar
  15       15       16 ar
  16       16       17 1
  17       16       18 ar
  18       18       19 1
  19       18       20 ar
  20       20       13 ar
  21       12       21 am
  22       21       22 2
  23       21       23 1
  24       23       24 ar
  25       24       25 ar
  26       25       26 ar
  27       26       27 ar
  28       27       28 ar
  29       28       23 ar
  30       28        9 1
  31        6       29 ar
  32       29       30 ar
  33       30        3 ar
  34       30       31 1
  35       31       32 1
  36       32       33 1
  37       32       34 2
  38       32       35 2
  39        1       36 1
  40        1       37 1
  41        1       38 1
  42        4       39 1
  43        5       40 1
  44        7       41 1
  45        8       42 1
  46       14       43 1
  47       15       44 1
  48       17       45 1
  49       17       46 1
  50       17       47 1
  51       19       48 1
  52       19       49 1
  53       19       50 1
  54       20       51 1
  55       24       52 1
  56       25       53 1
  57       26       54 1
  58       27       55 1
  59       29       56 1
  60       31       57 1
  61       33       58 1
  62       33       59 1
  63       33       60 1

@<TRIPOS>MOLECULE

  60   63
SMALL
USER_CHARGES
@<TRIPOS>ATOM
   1 C1           7.1353     1.9213     0.1436 C.3          1    LIG   0.0000
   2 O2           6.5147     0.9833     1.0104 O.3          1    LIG   0.0000
   3 C3           5.1655     0.9908     1.0042 C.ar         1    LIG   0.0000
   4 C4           4.4858     1.8833     0.1814 C.ar         1    LIG   0.0000
   5 C5           3.0951     1.8842     0.1819 C.ar         1    LIG   0.0000
   6 C6           2.3998     1.0000     1.0000 C.ar         1    LIG   0.0000
   7 N7           1.0000     1.0000     1.0000 N.pl3        1    LIG   0.0000
   8 C8           0.3150     2.1852     0.9452 C.2          1    LIG   0.0000
   9 C9          -0.7782     2.2853     0.2017 C.2          1    LIG   0.0000
  10 C10         -1.4910     3.5443     0.1541 C.2          1    LIG   0.0000
  11 O11         -1.0343     4.5014     0.7600 O.2          1    LIG   0.0000
  12 N12         -2.6822     3.6442    -0.5701 N.am         1    LIG   0.0000
  13 C13         -3.3581     4.8700    -0.5794 C.ar         1    LIG   0.0000
  14 C14         -4.3087     5.1271     0.4028 C.ar         1    LIG   0.0000
  15 C15         -4.9781     6.3463     0.3894 C.ar         1    LIG   0.0000
  16 C16         -4.7014     7.2934    -0.5905 C.ar         1    LIG   0.0000
  17 C17         -5.4595     8.6108    -0.5629 C.3          1    LIG   0.0000
  18 C18         -3.7475     7.0248    -1.5682 C.ar         1    LIG   0.0000
  19 C19         -3.4205     8.0376    -2.6540 C.3          1    LIG   0.0000
  20 C20         -3.0717     5.8091    -1.5652 C.ar         1    LIG   0.0000
  21 C21         -3.2065     2.5506    -1.2741 C.2          1    LIG   0.0000
  22 O22         -4.2605     2.7066    -1.8737 O.2          1    LIG   0.0000
  23 C23         -2.4985     1.2838    -1.2788 C.ar         1    LIG   0.0000
  24 C24         -2.9890     0.1862    -1.9779 C.ar         1    LIG   0.0000
  25 C25         -2.2991    -1.0201    -1.9638 C.ar         1    LIG   0.0000
  26 C26         -1.1139    -1.1322    -1.2457 C.ar         1    LIG   0.0000
  27 C27         -0.6178    -0.0457    -0.5389 C.ar         1    LIG   0.0000
  28 C28         -1.3126     1.1600    -0.5530 C.ar         1    LIG   0.0000
  29 C29          3.0760     0.1061     1.8233 C.ar         1    LIG   0.0000
  30 C30          4.4665     0.1082     1.8198 C.ar         1    LIG   0.0000
  31 N31          5.1651    -0.7825     2.6431 N.pl3        1    LIG   0.0000
  32 S32          4.3487    -1.8186     3.6006 S.o2         1    LIG   0.0000
  33 C33          3.5413    -0.8990     4.9342 C.3          1    LIG   0.0000
  34 O34          3.3530    -2.5086     2.8221 O.2          1    LIG   0.0000
  35 O35          5.2656    -2.7755     4.1640 O.2          1    LIG   0.0000
  36 H            8.1290     1.8386     0.2194 H            1    LIG   0.0000
  37 H            6.8566     1.7389    -0.7993 H            1    LIG   0.0000
  38 H            6.8573     2.8470     0.4002 H            1    LIG   0.0000
  39 H            4.9915     2.5172    -0.4037 H            1    LIG   0.0000
  40 H            2.5952     2.5204    -0.4057 H            1    LIG   0.0000
  41 H            0.5000     0.1349     1.0400 H            1    LIG   0.0000
  42 H            0.6395     2.9748     1.4660 H            1    LIG   0.0000
  43 H           -4.5078     4.4462     1.1076 H            1    LIG   0.0000
  44 H           -5.6639     6.5434     1.0901 H            1    LIG   0.0000
  45 H           -6.0955     8.6133     0.2088 H            1    LIG   0.0000
  46 H           -4.8118     9.3661    -0.4635 H            1    LIG   0.0000
  47 H           -5.9700     8.7196    -1.4159 H            1    LIG   0.0000
  48 H           -2.7158     7.6639    -3.2571 H            1    LIG   0.0000
  49 H           -4.2443     8.2342    -3.1856 H            1    LIG   0.0000
  50 H           -3.0861     8.8810    -2.2333 H            1    LIG   0.0000
  51 H           -2.3857     5.6118    -2.2656 H            1    LIG   0.0000
  52 H           -3.8423     0.2654    -2.4932 H            1    LIG   0.0000
  53 H           -2.6545    -1.8062    -2.4695 H            1    LIG   0.0000
  54 H           -0.6166    -1.9998    -1.2384 H            1    LIG   0.0000
  55 H            0.2344    -0.1287    -0.0222 H            1    LIG   0.0000
  56 H            2.5704    -0.5279     2.4084 H            1    LIG   0.0000
  57 H            6.1651    -0.7832     2.6437 H            1    LIG   0.0000
  58 H            4.2328    -0.4199     5.4749 H            1    LIG   0.0000
  59 H            2.9046    -0.2345     4.5430 H            1    LIG   0.0000
  60 H            3.0405    -1.5347     5.5217 H            1    LIG   0.0000
@<TRIPOS>BOND
   1        1        2 1
   2        2        3 1
   3        3        4 ar
   4        4        5 ar
   5        5        6 ar
   6        6        7 1
   7        7        8 1
   8        8        9 2
   9        9       10 1
  10       10       11 2
  11       10       12 am
  12       12       13 1
  13       13       14 ar
  14       14       15 ar
  15       15       16 ar
  16       16       17 1
  17       16       18 ar
  18       18       19 1
  19       18       20 ar
  20       20       13 ar
  21       12       21 am
  22       21       22 2
  23       21       23 1
  24       23       24 ar
  25       24       25 ar
  26       25       26 ar
  27       26       27 ar
  28       27       28 ar
  29       28       23 ar
  30       28        9 1
  31        6       29 ar
  32       29       30 ar
  33       30        3 ar
  34       30       31 1
  35       31       32 1
  36       32       33 1
  37       32       34 2
  38       32       35 2
  39        1       36 1
  40        1       37 1
  41        1       38 1
  42        4       39 1
  43        5       40 1
  44        7       41 1
  45        8       42 1
  46       14       43 1
  47       15       44 1
  48       17       45 1
  49       17       46 1
  50       17       47 1
  51       19       48 1
  52       19       49 1
  53       19       50 1
  54       20       51 1
  55       24       52 1
  56       25       53 1
  57       26       54 1
  58       27       55 1
  59       29       56 1
  60       31       57 1
  61       33       58 1
  62       33       59 1
  63       33       60 1

@<TRIPOS>MOLECULE

  60   63
SMALL
USER_CHARGES
@<TRIPOS>ATOM
   1 C1           7.1353     1.5728    -0.1199 C.3          1    LIG   0.0000
   2 O2           6.5147     0.9878     1.0155 O.3          1    LIG   0.0000
   3 C3           5.1655     0.9928     1.0071 C.ar         1    LIG   0.0000
   4 C4           4.4858     1.5501    -0.0713 C.ar         1    LIG   0.0000
   5 C5           3.0951     1.5511    -0.0712 C.ar         1    LIG   0.0000
   6 C6           2.3998     1.0000     1.0000 C.ar         1    LIG   0.0000
   7 N7           1.0000     1.0000     1.0000 N.pl3        1    LIG   0.0000
   8 C8           0.3150     2.1852     0.9452 C.2          1    LIG   0.0000
   9 C9          -0.7782     2.2853     0.2017 C.2          1    LIG   0.0000
  10 C10         -1.4910     3.5443     0.1541 C.2          1    LIG   0.0000
  11 O11         -1.0343     4.5014     0.7600 O.2          1    LIG   0.0000
  12 N12         -2.6822     3.6442    -0.5701 N.am         1    LIG   0.0000
  13 C13         -3.3581     4.8700    -0.5794 C.ar         1    LIG   0.0000
  14 C14         -3.0620     5.7997    -1.5705 C.ar         1    LIG   0.0000
  15 C15         -3.7359     7.0165    -1.5756 C.ar         1    LIG   0.0000
  16 C16         -4.6908     7.2991    -0.6049 C.ar         1    LIG   0.0000
  17 C17         -5.4001     8.6429    -0.6527 C.3          1    LIG   0.0000
  18 C18         -4.9789     6.3605     0.3819 C.ar         1    LIG   0.0000
  19 C19         -6.0169     6.6369     1.4579 C.3          1    LIG   0.0000
  20 C20         -4.3115     5.1403     0.3973 C.ar         1    LIG   0.0000
  21 C21         -3.2065     2.5506    -1.2741 C.2          1    LIG   0.0000
  22 O22         -4.2605     2.7066    -1.8737 O.2          1    LIG   0.0000
  23 C23         -2.4985     1.2838    -1.2788 C.ar         1    LIG   0.0000
  24 C24         -2.9890     0.1862    -1.9779 C.ar         1    LIG   0.0000
  25 C25         -2.2991    -1.0201    -1.9638 C.ar         1    LIG   0.0000
  26 C26         -1.1139    -1.1322    -1.2457 C.ar         1    LIG   0.0000
  27 C27         -0.6178    -0.0457    -0.5389 C.ar         1    LIG   0.0000
  28 C28         -1.3126     1.1600    -0.5530 C.ar         1    LIG   0.0000
  29 C29          3.0760     0.4416     2.0794 C.ar         1    LIG   0.0000
  30 C30          4.4665     0.4424     2.0754 C.ar         1    LIG   0.0000
  31 N31          5.1651    -0.1130     3.1536 N.pl3        1    LIG   0.0000
  32 S32          5.7844    -1.6162     3.0360 S.o2         1    LIG   0.0000
  33 C33          7.1736    -1.6073     1.8758 C.3          1    LIG   0.0000
  34 O34          6.2429    -2.0491     4.3306 O.2          1    LIG   0.0000
  35 O35          4.7677    -2.5183     2.5605 O.2          1    LIG   0.0000
  36 H            8.1290     1.5211    -0.0203 H            1    LIG   0.0000
  37 H            6.8566     1.0790    -0.9436 H            1    LIG   0.0000
  38 H            6.8573     2.5305    -0.1953 H            1    LIG   0.0000
  39 H            4.9915     1.9456    -0.8380 H            1    LIG   0.0000
  40 H            2.5952     1.9479    -0.8410 H            1    LIG   0.0000
  41 H            0.5000     0.1349     1.0400 H            1    LIG   0.0000
  42 H            0.6395     2.9748     1.4660 H            1    LIG   0.0000
  43 H           -2.3754     5.5965    -2.2686 H            1    LIG   0.0000
  44 H           -3.5321     7.6934    -2.2829 H            1    LIG   0.0000
  45 H           -5.0579     9.1731    -1.4284 H            1    LIG   0.0000
  46 H           -6.3840     8.4969    -0.7567 H            1    LIG   0.0000
  47 H           -5.2251     9.1425     0.1957 H            1    LIG   0.0000
  48 H           -6.0807     5.8486     2.0698 H            1    LIG   0.0000
  49 H           -5.7469     7.4447     1.9819 H            1    LIG   0.0000
  50 H           -6.9059     6.7992     1.0296 H            1    LIG   0.0000
  51 H           -4.5151     4.4630     1.1043 H            1    LIG   0.0000
  52 H           -3.8423     0.2654    -2.4932 H            1    LIG   0.0000
  53 H           -2.6545    -1.8062    -2.4695 H            1    LIG   0.0000
  54 H           -0.6166    -1.9998    -1.2384 H            1    LIG   0.0000
  55 H            0.2344    -0.1287    -0.0222 H            1    LIG   0.0000
  56 H            2.5704     0.0459     2.8461 H            1    LIG   0.0000
  57 H            5.2843     0.4124     3.9961 H            1    LIG   0.0000
  58 H            6.8552    -1.3067     0.9768 H            1    LIG   0.0000
  59 H            7.8796    -0.9808     2.2060 H            1    LIG   0.0000
  60 H            7.5535    -2.5295     1.8036 H            1    LIG   0.0000
@<TRIPOS>BOND
   1        1        2 1
   2        2        3 1
   3        3        4 ar
   4        4        5 ar
   5        5        6 ar
   6        6        7 1
   7        7        8 1
   8        8        9 2
   9        9       10 1
  10       10       11 2
  11       10       12 am
  12       12       13 1
  13       13       14 ar
  14       14       15 ar
  15       15       16 ar
  16       16       17 1
  17       16       18 ar
  18       18       19 1
  19       18       20 ar
  20       20       13 ar
  21       12       21 am
  22       21       22 2
  23       21       23 1
  24       23       24 ar
  25       24       25 ar
  26       25       26 ar
  27       26       27 ar
  28       27       28 ar
  29       28       23 ar
  30       28        9 1
  31        6       29 ar
  32       29       30 ar
  33       30        3 ar
  34       30       31 1
  35       31       32 1
  36       32       33 1
  37       32       34 2
  38       32       35 2
  39        1       36 1
  40        1       37 1
  41        1       38 1
  42        4       39 1
  43        5       40 1
  44        7       41 1
  45        8       42 1
  46       14       43 1
  47       15       44 1
  48       17       45 1
  49       17       46 1
  50       17       47 1
  51       19       48 1
  52       19       49 1
  53       19       50 1
  54       20       51 1
  55       24       52 1
  56       25       53 1
  57       26       54 1
  58       27       55 1
  59       29       56 1
  60       31       57 1
  61       33       58 1
  62       33       59 1
  63       33       60 1

@<TRIPOS>MOLECULE

  60   63
SMALL
USER_CHARGES
@<TRIPOS>ATOM
   1 C1           7.1353     1.5728    -0.1199 C.3          1    LIG   0.0000
   2 O2           6.5147     0.9878     1.0155 O.3          1    LIG   0.0000
   3 C3           5.1655     0.9928     1.0071 C.ar         1    LIG   0.0000
   4 C4           4.4858     1.5501    -0.0713 C.ar         1    LIG   0.0000
   5 C5           3.0951     1.5511    -0.0712 C.ar         1    LIG   0.0000
   6 C6           2.3998     1.0000     1.0000 C.ar         1    LIG   0.0000
   7 N7           1.0000     1.0000     1.0000 N.pl3        1    LIG   0.0000
   8 C8           0.3150     2.1852     0.9452 C.2          1    LIG   0.0000
   9 C9          -0.7782     2.2853     0.2017 C.2          1    LIG   0.0000
  10 C10         -1.4910     3.5443     0.1541 C.2          1    LIG   0.0000
  11 O11         -1.0343     4.5014     0.7600 O.2          1    LIG   0.0000
  12 N12         -2.6822     3.6442    -0.5701 N.am         1    LIG   0.0000
  13 C13         -3.3581     4.8700    -0.5794 C.ar         1    LIG   0.0000
  14 C14         -4.1200     5.2153    -1.6906 C.ar         1    LIG   0.0000
  15 C15         -4.7896     6.4345    -1.6955 C.ar         1    LIG   0.0000
  16 C16         -4.6989     7.2947    -0.6066 C.ar         1    LIG   0.0000
  17 C17         -5.4489     8.6159    -0.6595 C.3          1    LIG   0.0000
  18 C18         -3.9336     6.9379     0.5002 C.ar         1    LIG   0.0000
  19 C19         -3.8127     7.8543     1.7073 C.3          1    LIG   0.0000
  20 C20         -3.2593     5.7214     0.5166 C.ar         1    LIG   0.0000
  21 C21         -3.2065     2.5506    -1.2741 C.2          1    LIG   0.0000
  22 O22         -4.2605     2.7066    -1.8737 O.2          1    LIG   0.0000
  23 C23         -2.4985     1.2838    -1.2788 C.ar         1    LIG   0.0000
  24 C24         -2.9890     0.1862    -1.9779 C.ar         1    LIG   0.0000
  25 C25         -2.2991    -1.0201    -1.9638 C.ar         1    LIG   0.0000
  26 C26         -1.1139    -1.1322    -1.2457 C.ar         1    LIG   0.0000
  27 C27         -0.6178    -0.0457    -0.5389 C.ar         1    LIG   0.0000
  28 C28         -1.3126     1.1600    -0.5530 C.ar         1    LIG   0.0000
  29 C29          3.0760     0.4416     2.0794 C.ar         1    LIG   0.0000
  30 C30          4.4665     0.4424     2.0754 C.ar         1    LIG   0.0000
  31 N31          5.1651    -0.1130     3.1536 N.pl3        1    LIG   0.0000
  32 S32          4.3487    -0.7591     4.4078 S.o2         1    LIG   0.0000
  33 C33          3.5413     0.5611     5.3465 C.3          1    LIG   0.0000
  34 O34          3.3530    -1.6738     3.9122 O.2          1    LIG   0.0000
  35 O35          5.2656    -1.4656     5.2644 O.2          1    LIG   0.0000
  36 H            8.1290     1.5211    -0.0203 H            1    LIG   0.0000
  37 H            6.8566     1.0790    -0.9436 H            1    LIG   0.0000
  38 H            6.8573     2.5305    -0.1953 H            1    LIG   0.0000
  39 H            4.9915     1.9456    -0.8380 H            1    LIG   0.0000
  40 H            2.5952     1.9479    -0.8410 H            1    LIG   0.0000
  41 H            0.5000     0.1349     1.0400 H            1    LIG   0.0000
  42 H            0.6395     2.9748     1.4660 H            1    LIG   0.0000
  43 H           -4.1853     4.5969    -2.4736 H            1    LIG   0.0000
  44 H           -5.3407     6.6945    -2.4884 H            1    LIG   0.0000
  45 H           -5.9365     8.6878    -1.5296 H            1    LIG   0.0000
  46 H           -6.1046     8.6574     0.0945 H            1    LIG   0.0000
  47 H           -4.7991     9.3716    -0.5781 H            1    LIG   0.0000
  48 H           -3.2249     7.4259     2.3935 H            1    LIG   0.0000
  49 H           -3.4141     8.7269     1.4249 H            1    LIG   0.0000
  50 H           -4.7197     8.0129     2.0975 H            1    LIG   0.0000
  51 H           -2.7083     5.4609     1.3095 H            1    LIG   0.0000
  52 H           -3.8423     0.2654    -2.4932 H            1    LIG   0.0000
  53 H           -2.6545    -1.8062    -2.4695 H            1    LIG   0.0000
  54 H           -0.6166    -1.9998    -1.2384 H            1    LIG   0.0000
  55 H            0.2344    -0.1287    -0.0222 H            1    LIG   0.0000
  56 H            2.5704     0.0459     2.8461 H            1    LIG   0.0000
  57 H            6.1651    -0.1134     3.1545 H            1    LIG   0.0000
  58 H            4.2328     1.1963     5.6906 H            1    LIG   0.0000
  59 H            2.9046     1.0517     4.7516 H            1    LIG   0.0000
  60 H            3.0405     0.1647     6.1159 H            1    LIG   0.0000
@<TRIPOS>BOND
   1        1        2 1
   2        2        3 1
   3        3        4 ar
   4        4        5 ar
   5        5        6 ar
   6        6        7 1
   7        7        8 1
   8        8        9 2
   9        9       10 1
  10       10       11 2
  11       10       12 am
  12       12       13 1
  13       13       14 ar
  14       14       15 ar
  15       15       16 ar
  16       16       17 1
  17       16       18 ar
  18       18       19 1
  19       18       20 ar
  20       20       13 ar
  21       12       21 am
  22       21       22 2
  23       21       23 1
  24       23       24 ar
  25       24       25 ar
  26       25       26 ar
  27       26       27 ar
  28       27       28 ar
  29       28       23 ar
  30       28        9 1
  31        6       29 ar
  32       29       30 ar
  33       30        3 ar
  34       30       31 1
  35       31       32 1
  36       32       33 1
  37       32       34 2
  38       32       35 2
  39        1       36 1
  40        1       37 1
  41        1       38 1
  42        4       39 1
  43        5       40 1
  44        7       41 1
  45        8       42 1
  46       14       43 1
  47       15       44 1
  48       17       45 1
  49       17       46 1
  50       17       47 1
  51       19       48 1
  52       19       49 1
  53       19       50 1
  54       20       51 1
  55       24       52 1
  56       25       53 1
  57       26       54 1
  58       27       55 1
  59       29       56 1
  60       31       57 1
  61       33       58 1
  62       33       59 1
  63       33       60 1

@<TRIPOS>MOLECULE

  60   63
SMALL
USER_CHARGES
@<TRIPOS>ATOM
   1 C1           7.1353     1.5728    -0.1199 C.3          1    LIG   0.0000
   2 O2           6.5147     0.9878     1.0155 O.3          1    LIG   0.0000
   3 C3           5.1655     0.9928     1.0071 C.ar         1    LIG   0.0000
   4 C4           4.4858     1.5501    -0.0713 C.ar         1    LIG   0.0000
   5 C5           3.0951     1.5511    -0.0712 C.ar         1    LIG   0.0000
   6 C6           2.3998     1.0000     1.0000 C.ar         1    LIG   0.0000
   7 N7           1.0000     1.0000     1.0000 N.pl3        1    LIG   0.0000
   8 C8           0.3150     2.1852     0.9452 C.2          1    LIG   0.0000
   9 C9          -0.7782     2.2853     0.2017 C.2          1    LIG   0.0000
  10 C10         -1.4910     3.5443     0.1541 C.2          1    LIG   0.0000
  11 O11         -1.0343     4.5014     0.7600 O.2          1    LIG   0.0000
  12 N12         -2.6822     3.6442    -0.5701 N.am         1    LIG   0.0000
  13 C13         -3.3581     4.8700    -0.5794 C.ar         1    LIG   0.0000
  14 C14         -2.6274     6.0477    -0.4639 C.ar         1    LIG   0.0000
  15 C15         -3.3033     7.2634    -0.4732 C.ar         1    LIG   0.0000
  16 C16         -4.6880     7.3008    -0.5961 C.ar         1    LIG   0.0000
  17 C17         -5.3810     8.6538    -0.6010 C.3          1    LIG   0.0000
  18 C18         -5.4086     6.1153    -0.7114 C.ar         1    LIG   0.0000
  19 C19         -6.9229     6.1199    -0.8475 C.3          1    LIG   0.0000
  20 C20         -4.7437     4.8936    -0.7033 C.ar         1    LIG   0.0000
  21 C21         -3.2065     2.5506    -1.2741 C.2          1    LIG   0.0000
  22 O22         -4.2605     2.7066    -1.8737 O.2          1    LIG   0.0000
  23 C23         -2.4985     1.2838    -1.2788 C.ar         1    LIG   0.0000
  24 C24         -2.9890     0.1862    -1.9779 C.ar         1    LIG   0.0000
  25 C25         -2.2991    -1.0201    -1.9638 C.ar         1    LIG   0.0000
  26 C26         -1.1139    -1.1322    -1.2457 C.ar         1    LIG   0.0000
  27 C27         -0.6178    -0.0457    -0.5389 C.ar         1    LIG   0.0000
  28 C28         -1.3126     1.1600    -0.5530 C.ar         1    LIG   0.0000
  29 C29          3.0760     0.4416     2.0794 C.ar         1    LIG   0.0000
  30 C30          4.4665     0.4424     2.0754 C.ar         1    LIG   0.0000
  31 N31          5.1651    -0.1130     3.1536 N.pl3        1    LIG   0.0000
  32 S32          4.7856     0.3174     4.6792 S.o2         1    LIG   0.0000
  33 C33          5.2947     2.0303     4.9672 C.3          1    LIG   0.0000
  34 O34          3.3633     0.2007     4.8712 O.2          1    LIG   0.0000
  35 O35          5.4677    -0.5483     5.6060 O.2          1    LIG   0.0000
  36 H            8.1290     1.5211    -0.0203 H            1    LIG   0.0000
  37 H            6.8566     1.0790    -0.9436 H            1    LIG   0.0000
  38 H            6.8573     2.5305    -0.1953 H            1    LIG   0.0000
  39 H            4.9915     1.9456    -0.8380 H            1    LIG   0.0000
  40 H            2.5952     1.9479    -0.8410 H            1    LIG   0.0000
  41 H            0.5000     0.1349     1.0400 H            1    LIG   0.0000
  42 H            0.6395     2.9748     1.4660 H            1    LIG   0.0000
  43 H           -1.6316     6.0210    -0.3755 H            1    LIG   0.0000
  44 H           -2.7894     8.1173    -0.3909 H            1    LIG   0.0000
  45 H           -4.6981     9.3784    -0.5087 H            1    LIG   0.0000
  46 H           -5.8772     8.7710    -1.4613 H            1    LIG   0.0000
  47 H           -6.0236     8.7019     0.1637 H            1    LIG   0.0000
  48 H           -7.2541     5.1789    -0.9173 H            1    LIG   0.0000
  49 H           -7.3284     6.5572    -0.0448 H            1    LIG   0.0000
  50 H           -7.1822     6.6265    -1.6697 H            1    LIG   0.0000
  51 H           -5.2572     4.0395    -0.7858 H            1    LIG   0.0000
  52 H           -3.8423     0.2654    -2.4932 H            1    LIG   0.0000
  53 H           -2.6545    -1.8062    -2.4695 H            1    LIG   0.0000
  54 H           -0.6166    -1.9998    -1.2384 H            1    LIG   0.0000
  55 H            0.2344    -0.1287    -0.0222 H            1    LIG   0.0000
  56 H            2.5704     0.0459     2.8461 H            1    LIG   0.0000
  57 H            5.8971    -0.7739     2.9879 H            1    LIG   0.0000
  58 H            6.2824     2.1114     4.8339 H            1    LIG   0.0000
  59 H            4.8210     2.6315     4.3236 H            1    LIG   0.0000
  60 H            5.0619     2.2944     5.9032 H            1    LIG   0.0000
@<TRIPOS>BOND
   1        1        2 1
   2        2        3 1
   3        3        4 ar
   4        4        5 ar
   5        5        6 ar
   6        6        7 1
   7        7        8 1
   8        8        9 2
   9        9       10 1
  10       10       11 2
  11       10       12 am
  12       12       13 1
  13       13       14 ar
  14       14       15 ar
  15       15       16 ar
  16       16       17 1
  17       16       18 ar
  18       18       19 1
  19       18       20 ar
  20       20       13 ar
  21       12       21 am
  22       21       22 2
  23       21       23 1
  24       23       24 ar
  25       24       25 ar
  26       25       26 ar
  27       26       27 ar
  28       27       28 ar
  29       28       23 ar
  30       28        9 1
  31        6       29 ar
  32       29       30 ar
  33       30        3 ar
  34       30       31 1
  35       31       32 1
  36       32       33 1
  37       32       34 2
  38       32       35 2
  39        1       36 1
  40        1       37 1
  41        1       38 1
  42        4       39 1
  43        5       40 1
  44        7       41 1
  45        8       42 1
  46       14       43 1
  47       15       44 1
  48       17       45 1
  49       17       46 1
  50       17       47 1
  51       19       48 1
  52       19       49 1
  53       19       50 1
  54       20       51 1
  55       24       52 1
  56       25       53 1
  57       26       54 1
  58       27       55 1
  59       29       56 1
  60       31       57 1
  61       33       58 1
  62       33       59 1
  63       33       60 1

@<TRIPOS>MOLECULE

  60   63
SMALL
USER_CHARGES
@<TRIPOS>ATOM
   1 C1           7.1353     1.5728    -0.1199 C.3          1    LIG   0.0000
   2 O2           6.5147     0.9878     1.0155 O.3          1    LIG   0.0000
   3 C3           5.1655     0.9928     1.0071 C.ar         1    LIG   0.0000
   4 C4           4.4858     1.5501    -0.0713 C.ar         1    LIG   0.0000
   5 C5           3.0951     1.5511    -0.0712 C.ar         1    LIG   0.0000
   6 C6           2.3998     1.0000     1.0000 C.ar         1    LIG   0.0000
   7 N7           1.0000     1.0000     1.0000 N.pl3        1    LIG   0.0000
   8 C8           0.3150     2.1852     0.9452 C.2          1    LIG   0.0000
   9 C9          -0.7782     2.2853     0.2017 C.2          1    LIG   0.0000
  10 C10         -1.4910     3.5443     0.1541 C.2          1    LIG   0.0000
  11 O11         -1.0343     4.5014     0.7600 O.2          1    LIG   0.0000
  12 N12         -2.6822     3.6442    -0.5701 N.am         1    LIG   0.0000
  13 C13         -3.3581     4.8700    -0.5794 C.ar         1    LIG   0.0000
  14 C14         -4.3087     5.1271     0.4028 C.ar         1    LIG   0.0000
  15 C15         -4.9781     6.3463     0.3894 C.ar         1    LIG   0.0000
  16 C16         -4.7014     7.2934    -0.5905 C.ar         1    LIG   0.0000
  17 C17         -5.4595     8.6108    -0.5629 C.3          1    LIG   0.0000
  18 C18         -3.7475     7.0248    -1.5682 C.ar         1    LIG   0.0000
  19 C19         -3.4205     8.0376    -2.6540 C.3          1    LIG   0.0000
  20 C20         -3.0717     5.8091    -1.5652 C.ar         1    LIG   0.0000
  21 C21         -3.2065     2.5506    -1.2741 C.2          1    LIG   0.0000
  22 O22         -4.2605     2.7066    -1.8737 O.2          1    LIG   0.0000
  23 C23         -2.4985     1.2838    -1.2788 C.ar         1    LIG   0.0000
  24 C24         -2.9890     0.1862    -1.9779 C.ar         1    LIG   0.0000
  25 C25         -2.2991    -1.0201    -1.9638 C.ar         1    LIG   0.0000
  26 C26         -1.1139    -1.1322    -1.2457 C.ar         1    LIG   0.0000
  27 C27         -0.6178    -0.0457    -0.5389 C.ar         1    LIG   0.0000
  28 C28         -1.3126     1.1600    -0.5530 C.ar         1    LIG   0.0000
  29 C29          3.0760     0.4416     2.0794 C.ar         1    LIG   0.0000
  30 C30          4.4665     0.4424     2.0754 C.ar         1    LIG   0.0000
  31 N31          5.1651    -0.1130     3.1536 N.pl3        1    LIG   0.0000
  32 S32          5.7843     0.8555     4.3093 S.o2         1    LIG   0.0000
  33 C33          7.1735     1.7951     3.6286 C.3          1    LIG   0.0000
  34 O34          4.7675     1.7662     4.7678 O.2          1    LIG   0.0000
  35 O35          6.2428     0.0527     5.4133 O.2          1    LIG   0.0000
  36 H            8.1290     1.5211    -0.0203 H            1    LIG   0.0000
  37 H            6.8566     1.0790    -0.9436 H            1    LIG   0.0000
  38 H            6.8573     2.5305    -0.1953 H            1    LIG   0.0000
  39 H            4.9915     1.9456    -0.8380 H            1    LIG   0.0000
  40 H            2.5952     1.9479    -0.8410 H            1    LIG   0.0000
  41 H            0.5000     0.1349     1.0400 H            1    LIG   0.0000
  42 H            0.6395     2.9748     1.4660 H            1    LIG   0.0000
  43 H           -4.5078     4.4462     1.1076 H            1    LIG   0.0000
  44 H           -5.6639     6.5434     1.0901 H            1    LIG   0.0000
  45 H           -6.0955     8.6133     0.2088 H            1    LIG   0.0000
  46 H           -4.8118     9.3661    -0.4635 H            1    LIG   0.0000
  47 H           -5.9700     8.7196    -1.4159 H            1    LIG   0.0000
  48 H           -2.7158     7.6639    -3.2571 H            1    LIG   0.0000
  49 H           -4.2443     8.2342    -3.1856 H            1    LIG   0.0000
  50 H           -3.0861     8.8810    -2.2333 H            1    LIG   0.0000
  51 H           -2.3857     5.6118    -2.2656 H            1    LIG   0.0000
  52 H           -3.8423     0.2654    -2.4932 H            1    LIG   0.0000
  53 H           -2.6545    -1.8062    -2.4695 H            1    LIG   0.0000
  54 H           -0.6166    -1.9998    -1.2384 H            1    LIG   0.0000
  55 H            0.2344    -0.1287    -0.0222 H            1    LIG   0.0000
  56 H            2.5704     0.0459     2.8461 H            1    LIG   0.0000
  57 H            5.2844    -1.1040     3.2149 H            1    LIG   0.0000
  58 H            7.8796     1.1626     3.3102 H            1    LIG   0.0000
  59 H            6.8550     2.3525     2.8619 H            1    LIG   0.0000
  60 H            7.5533     2.3892     4.3376 H            1    LIG   0.0000
@<TRIPOS>BOND
   1        1        2 1
   2        2        3 1
   3        3        4 ar
   4        4        5 ar
   5        5        6 ar
   6        6        7 1
   7        7        8 1
   8        8        9 2
   9        9       10 1
  10       10       11 2
  11       10       12 am
  12       12       13 1
  13       13       14 ar
  14       14       15 ar
  15       15       16 ar
  16       16       17 1
  17       16       18 ar
  18       18       19 1
  19       18       20 ar
  20       20       13 ar
  21       12       21 am
  22       21       22 2
  23       21       23 1
  24       23       24 ar
  25       24       25 ar
  26       25       26 ar
  27       26       27 ar
  28       27       28 ar
  29       28       23 ar
  30       28        9 1
  31        6       29 ar
  32       29       30 ar
  33       30        3 ar
  34       30       31 1
  35       31       32 1
  36       32       33 1
  37       32       34 2
  38       32       35 2
  39        1       36 1
  40        1       37 1
  41        1       38 1
  42        4       39 1
  43        5       40 1
  44        7       41 1
  45        8       42 1
  46       14       43 1
  47       15       44 1
  48       17       45 1
  49       17       46 1
  50       17       47 1
  51       19       48 1
  52       19       49 1
  53       19       50 1
  54       20       51 1
  55       24       52 1
  56       25       53 1
  57       26       54 1
  58       27       55 1
  59       29       56 1
  60       31       57 1
  61       33       58 1
  62       33       59 1
  63       33       60 1

