@<TRIPOS>MOLECULE
*****
 60 63 0 0 0
SMALL
USER_CHARGES

@<TRIPOS>ATOM
      1 C1          7.1353    1.9213    0.1436 C.3     1  LIG1        0.0000
      2 O2          6.5147    0.9833    1.0104 O.2     1  LIG1        0.0000
      3 C3          5.1655    0.9908    1.0042 C.3     1  LIG1        0.0000
      4 C4          4.4858    1.8833    0.1814 C.3     1  LIG1        0.0000
      5 C5          3.0951    1.8842    0.1819 C.3     1  LIG1        0.0000
      6 C6          2.3998    1.0000    1.0000 C.3     1  LIG1        0.0000
      7 N7          1.0000    1.0000    1.0000 N.pl3   1  LIG1        0.0000
      8 C8          0.3150    2.1852    0.9452 C.2     1  LIG1        0.0000
      9 C9         -0.7782    2.2853    0.2017 C.2     1  LIG1        0.0000
     10 C10        -1.4910    3.5443    0.1541 C.2     1  LIG1        0.0000
     11 O11        -1.0343    4.5014    0.7600 O.2     1  LIG1        0.0000
     12 N12        -2.6822    3.6442   -0.5701 N.am    1  LIG1        0.0000
     13 C13        -3.3581    4.8700   -0.5794 C.3     1  LIG1        0.0000
     14 C14        -4.3087    5.1271    0.4028 C.3     1  LIG1        0.0000
     15 C15        -4.9781    6.3463    0.3894 C.3     1  LIG1        0.0000
     16 C16        -4.7014    7.2934   -0.5905 C.3     1  LIG1        0.0000
     17 C17        -5.4595    8.6108   -0.5629 C.3     1  LIG1        0.0000
     18 C18        -3.7475    7.0248   -1.5682 C.3     1  LIG1        0.0000
     19 C19        -3.4205    8.0376   -2.6540 C.3     1  LIG1        0.0000
     20 C20        -3.0717    5.8091   -1.5652 C.3     1  LIG1        0.0000
     21 C21        -3.2065    2.5506   -1.2741 C.2     1  LIG1        0.0000
     22 O22        -4.2605    2.7066   -1.8737 O.2     1  LIG1        0.0000
     23 C23        -2.4985    1.2838   -1.2788 C.3     1  LIG1        0.0000
     24 C24        -2.9890    0.1862   -1.9779 C.3     1  LIG1        0.0000
     25 C25        -2.2991   -1.0201   -1.9638 C.3     1  LIG1        0.0000
     26 C26        -1.1139   -1.1322   -1.2457 C.3     1  LIG1        0.0000
     27 C27        -0.6178   -0.0457   -0.5389 C.3     1  LIG1        0.0000
     28 C28        -1.3126    1.1600   -0.5530 C.3     1  LIG1        0.0000
     29 C29         3.0760    0.1061    1.8233 C.3     1  LIG1        0.0000
     30 C30         4.4665    0.1082    1.8198 C.3     1  LIG1        0.0000
     31 N31         5.1651   -0.7825    2.6431 N.pl3   1  LIG1        0.0000
     32 S32         4.3487   -1.8186    3.6006 S.O2    1  LIG1        0.0000
     33 C33         3.5413   -0.8990    4.9342 C.3     1  LIG1        0.0000
     34 O34         3.3530   -2.5086    2.8221 O.2     1  LIG1        0.0000
     35 O35         5.2656   -2.7755    4.1640 O.2     1  LIG1        0.0000
     36 H           8.1290    1.8386    0.2194 H       1  LIG1        0.0000
     37 H           6.8566    1.7389   -0.7993 H       1  LIG1        0.0000
     38 H           6.8573    2.8470    0.4002 H       1  LIG1        0.0000
     39 H           4.9915    2.5172   -0.4037 H       1  LIG1        0.0000
     40 H           2.5952    2.5204   -0.4057 H       1  LIG1        0.0000
     41 H           0.5000    0.1349    1.0400 H       1  LIG1        0.0000
     42 H           0.6395    2.9748    1.4660 H       1  LIG1        0.0000
     43 H          -4.5078    4.4462    1.1076 H       1  LIG1        0.0000
     44 H          -5.6639    6.5434    1.0901 H       1  LIG1        0.0000
     45 H          -6.0955    8.6133    0.2088 H       1  LIG1        0.0000
     46 H          -4.8118    9.3661   -0.4635 H       1  LIG1        0.0000
     47 H          -5.9700    8.7196   -1.4159 H       1  LIG1        0.0000
     48 H          -2.7158    7.6639   -3.2571 H       1  LIG1        0.0000
     49 H          -4.2443    8.2342   -3.1856 H       1  LIG1        0.0000
     50 H          -3.0861    8.8810   -2.2333 H       1  LIG1        0.0000
     51 H          -2.3857    5.6118   -2.2656 H       1  LIG1        0.0000
     52 H          -3.8423    0.2654   -2.4932 H       1  LIG1        0.0000
     53 H          -2.6545   -1.8062   -2.4695 H       1  LIG1        0.0000
     54 H          -0.6166   -1.9998   -1.2384 H       1  LIG1        0.0000
     55 H           0.2344   -0.1287   -0.0222 H       1  LIG1        0.0000
     56 H           2.5704   -0.5279    2.4084 H       1  LIG1        0.0000
     57 H           6.1651   -0.7832    2.6437 H       1  LIG1        0.0000
     58 H           4.2328   -0.4199    5.4749 H       1  LIG1        0.0000
     59 H           2.9046   -0.2345    4.5430 H       1  LIG1        0.0000
     60 H           3.0405   -1.5347    5.5217 H       1  LIG1        0.0000
@<TRIPOS>BOND
     1     1     2    1
     2     2     3    1
     3     3     4   ar
     4     4     5   ar
     5     5     6   ar
     6     6     7    1
     7     7     8    1
     8     8     9    2
     9     9    10    1
    10    10    11    2
    11    10    12   am
    12    12    13    1
    13    13    14   ar
    14    14    15   ar
    15    15    16   ar
    16    16    17    1
    17    16    18   ar
    18    18    19    1
    19    18    20   ar
    20    20    13   ar
    21    12    21   am
    22    21    22    2
    23    21    23    1
    24    23    24   ar
    25    24    25   ar
    26    25    26   ar
    27    26    27   ar
    28    27    28   ar
    29    28    23   ar
    30    28     9    1
    31     6    29   ar
    32    29    30   ar
    33    30     3   ar
    34    30    31    1
    35    31    32    1
    36    32    33    1
    37    32    34    2
    38    32    35    2
    39     1    36    1
    40     1    37    1
    41     1    38    1
    42     4    39    1
    43     5    40    1
    44     7    41    1
    45     8    42    1
    46    14    43    1
    47    15    44    1
    48    17    45    1
    49    17    46    1
    50    17    47    1
    51    19    48    1
    52    19    49    1
    53    19    50    1
    54    20    51    1
    55    24    52    1
    56    25    53    1
    57    26    54    1
    58    27    55    1
    59    29    56    1
    60    31    57    1
    61    33    58    1
    62    33    59    1
    63    33    60    1
