@<TRIPOS>MOLECULE

  22   23
SMALL
USER_CHARGES
@<TRIPOS>ATOM
   1 F1           1.2346    -2.6366    -1.2734 F            1    LIG   0.0000
   2 C2           1.2290    -2.1987    -0.0175 C.3          1    LIG   0.0000
   3 F3           2.3206    -2.6308     0.6075 F            1    LIG   0.0000
   4 F4           0.1489    -2.6587     0.6075 F            1    LIG   0.0000
   5 C5           1.2094    -0.6790    -0.0110 C.ar         1    LIG   0.0000
   6 C6          -0.0114    -0.0133     0.0033 C.ar         1    LIG   0.0000
   7 C7          -0.0171     1.3778     0.0102 C.ar         1    LIG   0.0000
   8 Br8         -1.7272     2.3349     0.0310 Br           1    LIG   0.0000
   9 C9           1.1708     2.1015     0.0028 C.ar         1    LIG   0.0000
  10 C10          2.3780     1.4107    -0.0123 C.ar         1    LIG   0.0000
  11 O11          3.5371     2.1016    -0.0208 O.3          1    LIG   0.0000
  12 C12          4.6599     1.3526    -0.0354 C.2          1    LIG   0.0000
  13 N13          5.3084     0.9152    -1.0882 N.2          1    LIG   0.0000
  14 C14          6.4293     0.1699    -0.8210 C.2          1    LIG   0.0000
  15 C15          6.7283    -0.0243     0.4937 C.2          1    LIG   0.0000
  16 S16          5.4966     0.7975     1.3402 S.3          1    LIG   0.0000
  17 C17          2.4116     0.0206    -0.0197 C.ar         1    LIG   0.0000
  18 H           -0.8702    -0.5256     0.0085 H            1    LIG   0.0000
  19 H            1.1571     3.1014     0.0083 H            1    LIG   0.0000
  20 H            6.9960    -0.2101    -1.5520 H            1    LIG   0.0000
  21 H            7.4981    -0.5347     0.8770 H            1    LIG   0.0000
  22 H            3.2844    -0.4674    -0.0310 H            1    LIG   0.0000
@<TRIPOS>BOND
   1        1        2 1
   2        2        3 1
   3        2        4 1
   4        2        5 1
   5        5        6 ar
   6        6        7 ar
   7        7        8 1
   8        7        9 ar
   9        9       10 ar
  10       10       11 1
  11       11       12 1
  12       12       13 2
  13       13       14 1
  14       14       15 2
  15       15       16 1
  16       16       12 1
  17       10       17 ar
  18       17        5 ar
  19        6       18 1
  20        9       19 1
  21       14       20 1
  22       15       21 1
  23       17       22 1

@<TRIPOS>MOLECULE

  22   23
SMALL
USER_CHARGES
@<TRIPOS>ATOM
   1 F1           1.2346    -2.6366    -1.2734 F            1    LIG   0.0000
   2 C2           1.2290    -2.1987    -0.0175 C.3          1    LIG   0.0000
   3 F3           2.3206    -2.6308     0.6075 F            1    LIG   0.0000
   4 F4           0.1489    -2.6587     0.6075 F            1    LIG   0.0000
   5 C5           1.2094    -0.6790    -0.0110 C.ar         1    LIG   0.0000
   6 C6          -0.0114    -0.0133     0.0033 C.ar         1    LIG   0.0000
   7 C7          -0.0171     1.3778     0.0102 C.ar         1    LIG   0.0000
   8 Br8         -1.7272     2.3349     0.0310 Br           1    LIG   0.0000
   9 C9           1.1708     2.1015     0.0028 C.ar         1    LIG   0.0000
  10 C10          2.3780     1.4107    -0.0123 C.ar         1    LIG   0.0000
  11 O11          3.5371     2.1016    -0.0208 O.3          1    LIG   0.0000
  12 C12          4.6599     1.3526    -0.0354 C.2          1    LIG   0.0000
  13 N13          5.3316     0.9093     1.0003 N.2          1    LIG   0.0000
  14 C14          6.4452     0.1641     0.7042 C.2          1    LIG   0.0000
  15 C15          6.7157    -0.0216    -0.6179 C.2          1    LIG   0.0000
  16 S16          5.4689     0.8099    -1.4323 S.3          1    LIG   0.0000
  17 C17          2.4116     0.0206    -0.0197 C.ar         1    LIG   0.0000
  18 H           -0.8702    -0.5256     0.0085 H            1    LIG   0.0000
  19 H            1.1571     3.1014     0.0083 H            1    LIG   0.0000
  20 H            7.0267    -0.2218     1.4203 H            1    LIG   0.0000
  21 H            7.4756    -0.5315    -1.0210 H            1    LIG   0.0000
  22 H            3.2844    -0.4674    -0.0310 H            1    LIG   0.0000
@<TRIPOS>BOND
   1        1        2 1
   2        2        3 1
   3        2        4 1
   4        2        5 1
   5        5        6 ar
   6        6        7 ar
   7        7        8 1
   8        7        9 ar
   9        9       10 ar
  10       10       11 1
  11       11       12 1
  12       12       13 2
  13       13       14 1
  14       14       15 2
  15       15       16 1
  16       16       12 1
  17       10       17 ar
  18       17        5 ar
  19        6       18 1
  20        9       19 1
  21       14       20 1
  22       15       21 1
  23       17       22 1

@<TRIPOS>MOLECULE

  22   23
SMALL
USER_CHARGES
@<TRIPOS>ATOM
   1 F1           1.2346    -2.6366    -1.2734 F            1    LIG   0.0000
   2 C2           1.2290    -2.1987    -0.0175 C.3          1    LIG   0.0000
   3 F3           2.3206    -2.6308     0.6075 F            1    LIG   0.0000
   4 F4           0.1489    -2.6587     0.6075 F            1    LIG   0.0000
   5 C5           1.2094    -0.6790    -0.0110 C.ar         1    LIG   0.0000
   6 C6          -0.0114    -0.0133     0.0033 C.ar         1    LIG   0.0000
   7 C7          -0.0171     1.3778     0.0102 C.ar         1    LIG   0.0000
   8 Br8         -1.7272     2.3349     0.0310 Br           1    LIG   0.0000
   9 C9           1.1708     2.1015     0.0028 C.ar         1    LIG   0.0000
  10 C10          2.3780     1.4107    -0.0123 C.ar         1    LIG   0.0000
  11 O11          3.5371     2.1016    -0.0208 O.3          1    LIG   0.0000
  12 C12          3.4126     3.4455    -0.0136 C.2          1    LIG   0.0000
  13 N13          3.3478     4.2309     1.0349 N.2          1    LIG   0.0000
  14 C14          3.2225     5.5696     0.7605 C.2          1    LIG   0.0000
  15 C15          3.1797     5.9165    -0.5561 C.2          1    LIG   0.0000
  16 S16          3.3075     4.4367    -1.3945 S.3          1    LIG   0.0000
  17 C17          2.4116     0.0206    -0.0197 C.ar         1    LIG   0.0000
  18 H           -0.8702    -0.5256     0.0085 H            1    LIG   0.0000
  19 H            1.1571     3.1014     0.0083 H            1    LIG   0.0000
  20 H            3.1657     6.2536     1.4877 H            1    LIG   0.0000
  21 H            3.0927     6.8339    -0.9444 H            1    LIG   0.0000
  22 H            3.2844    -0.4674    -0.0310 H            1    LIG   0.0000
@<TRIPOS>BOND
   1        1        2 1
   2        2        3 1
   3        2        4 1
   4        2        5 1
   5        5        6 ar
   6        6        7 ar
   7        7        8 1
   8        7        9 ar
   9        9       10 ar
  10       10       11 1
  11       11       12 1
  12       12       13 2
  13       13       14 1
  14       14       15 2
  15       15       16 1
  16       16       12 1
  17       10       17 ar
  18       17        5 ar
  19        6       18 1
  20        9       19 1
  21       14       20 1
  22       15       21 1
  23       17       22 1

@<TRIPOS>MOLECULE

  22   23
SMALL
USER_CHARGES
@<TRIPOS>ATOM
   1 F1           1.2346    -2.6366    -1.2734 F            1    LIG   0.0000
   2 C2           1.2290    -2.1987    -0.0175 C.3          1    LIG   0.0000
   3 F3           2.3206    -2.6308     0.6075 F            1    LIG   0.0000
   4 F4           0.1489    -2.6587     0.6075 F            1    LIG   0.0000
   5 C5           1.2094    -0.6790    -0.0110 C.ar         1    LIG   0.0000
   6 C6          -0.0114    -0.0133     0.0033 C.ar         1    LIG   0.0000
   7 C7          -0.0171     1.3778     0.0102 C.ar         1    LIG   0.0000
   8 Br8         -1.7272     2.3349     0.0310 Br           1    LIG   0.0000
   9 C9           1.1708     2.1015     0.0028 C.ar         1    LIG   0.0000
  10 C10          2.3780     1.4107    -0.0123 C.ar         1    LIG   0.0000
  11 O11          3.5371     2.1016    -0.0208 O.3          1    LIG   0.0000
  12 C12          3.4126     3.4455    -0.0136 C.2          1    LIG   0.0000
  13 N13          3.3310     4.2405    -1.0536 N.2          1    LIG   0.0000
  14 C14          3.2084     5.5765    -0.7648 C.2          1    LIG   0.0000
  15 C15          3.1881     5.9113     0.5555 C.2          1    LIG   0.0000
  16 S16          3.3352     4.4244     1.3779 S.3          1    LIG   0.0000
  17 C17          2.4116     0.0206    -0.0197 C.ar         1    LIG   0.0000
  18 H           -0.8702    -0.5256     0.0085 H            1    LIG   0.0000
  19 H            1.1571     3.1014     0.0083 H            1    LIG   0.0000
  20 H            3.1378     6.2670    -1.4847 H            1    LIG   0.0000
  21 H            3.1054     6.8249     0.9536 H            1    LIG   0.0000
  22 H            3.2844    -0.4674    -0.0310 H            1    LIG   0.0000
@<TRIPOS>BOND
   1        1        2 1
   2        2        3 1
   3        2        4 1
   4        2        5 1
   5        5        6 ar
   6        6        7 ar
   7        7        8 1
   8        7        9 ar
   9        9       10 ar
  10       10       11 1
  11       11       12 1
  12       12       13 2
  13       13       14 1
  14       14       15 2
  15       15       16 1
  16       16       12 1
  17       10       17 ar
  18       17        5 ar
  19        6       18 1
  20        9       19 1
  21       14       20 1
  22       15       21 1
  23       17       22 1

@<TRIPOS>MOLECULE

  22   23
SMALL
USER_CHARGES
@<TRIPOS>ATOM
   1 F1           1.2346    -2.6366    -1.2734 F            1    LIG   0.0000
   2 C2           1.2290    -2.1987    -0.0175 C.3          1    LIG   0.0000
   3 F3           2.3206    -2.6308     0.6075 F            1    LIG   0.0000
   4 F4           0.1489    -2.6587     0.6075 F            1    LIG   0.0000
   5 C5           1.2094    -0.6790    -0.0110 C.ar         1    LIG   0.0000
   6 C6          -0.0114    -0.0133     0.0033 C.ar         1    LIG   0.0000
   7 C7          -0.0171     1.3778     0.0102 C.ar         1    LIG   0.0000
   8 Br8         -1.7272     2.3349     0.0310 Br           1    LIG   0.0000
   9 C9           1.1708     2.1015     0.0028 C.ar         1    LIG   0.0000
  10 C10          2.3780     1.4107    -0.0123 C.ar         1    LIG   0.0000
  11 O11          3.5371     2.1016    -0.0208 O.3          1    LIG   0.0000
  12 C12          3.6038     3.1352     0.8446 C.2          1    LIG   0.0000
  13 N13          2.6731     3.5333     1.6786 N.2          1    LIG   0.0000
  14 C14          3.0015     4.6178     2.4527 C.2          1    LIG   0.0000
  15 C15          4.2428     5.1450     2.2611 C.2          1    LIG   0.0000
  16 S16          4.9394     4.1728     1.0452 S.3          1    LIG   0.0000
  17 C17          2.4116     0.0206    -0.0197 C.ar         1    LIG   0.0000
  18 H           -0.8702    -0.5256     0.0085 H            1    LIG   0.0000
  19 H            1.1571     3.1014     0.0083 H            1    LIG   0.0000
  20 H            2.3639     5.0004     3.1214 H            1    LIG   0.0000
  21 H            4.6539     5.9274     2.7289 H            1    LIG   0.0000
  22 H            3.2844    -0.4674    -0.0310 H            1    LIG   0.0000
@<TRIPOS>BOND
   1        1        2 1
   2        2        3 1
   3        2        4 1
   4        2        5 1
   5        5        6 ar
   6        6        7 ar
   7        7        8 1
   8        7        9 ar
   9        9       10 ar
  10       10       11 1
  11       11       12 1
  12       12       13 2
  13       13       14 1
  14       14       15 2
  15       15       16 1
  16       16       12 1
  17       10       17 ar
  18       17        5 ar
  19        6       18 1
  20        9       19 1
  21       14       20 1
  22       15       21 1
  23       17       22 1

@<TRIPOS>MOLECULE

  22   23
SMALL
USER_CHARGES
@<TRIPOS>ATOM
   1 F1           1.2346    -2.6366    -1.2734 F            1    LIG   0.0000
   2 C2           1.2290    -2.1987    -0.0175 C.3          1    LIG   0.0000
   3 F3           2.3206    -2.6308     0.6075 F            1    LIG   0.0000
   4 F4           0.1489    -2.6587     0.6075 F            1    LIG   0.0000
   5 C5           1.2094    -0.6790    -0.0110 C.ar         1    LIG   0.0000
   6 C6          -0.0114    -0.0133     0.0033 C.ar         1    LIG   0.0000
   7 C7          -0.0171     1.3778     0.0102 C.ar         1    LIG   0.0000
   8 Br8         -1.7272     2.3349     0.0310 Br           1    LIG   0.0000
   9 C9           1.1708     2.1015     0.0028 C.ar         1    LIG   0.0000
  10 C10          2.3780     1.4107    -0.0123 C.ar         1    LIG   0.0000
  11 O11          3.5371     2.1016    -0.0208 O.3          1    LIG   0.0000
  12 C12          3.5866     3.1428    -0.8781 C.2          1    LIG   0.0000
  13 N13          2.6409     3.5457    -1.6928 N.2          1    LIG   0.0000
  14 C14          2.9528     4.6389    -2.4615 C.2          1    LIG   0.0000
  15 C15          4.1964     5.1669    -2.2873 C.2          1    LIG   0.0000
  16 S16          4.9180     4.1823    -1.0962 S.3          1    LIG   0.0000
  17 C17          2.4116     0.0206    -0.0197 C.ar         1    LIG   0.0000
  18 H           -0.8702    -0.5256     0.0085 H            1    LIG   0.0000
  19 H            1.1571     3.1014     0.0083 H            1    LIG   0.0000
  20 H            2.3022     5.0270    -3.1143 H            1    LIG   0.0000
  21 H            4.5968     5.9556    -2.7537 H            1    LIG   0.0000
  22 H            3.2844    -0.4674    -0.0310 H            1    LIG   0.0000
@<TRIPOS>BOND
   1        1        2 1
   2        2        3 1
   3        2        4 1
   4        2        5 1
   5        5        6 ar
   6        6        7 ar
   7        7        8 1
   8        7        9 ar
   9        9       10 ar
  10       10       11 1
  11       11       12 1
  12       12       13 2
  13       13       14 1
  14       14       15 2
  15       15       16 1
  16       16       12 1
  17       10       17 ar
  18       17        5 ar
  19        6       18 1
  20        9       19 1
  21       14       20 1
  22       15       21 1
  23       17       22 1

@<TRIPOS>MOLECULE

  22   23
SMALL
USER_CHARGES
@<TRIPOS>ATOM
   1 F1           1.2346    -2.6366    -1.2734 F            1    LIG   0.0000
   2 C2           1.2290    -2.1987    -0.0175 C.3          1    LIG   0.0000
   3 F3           2.3206    -2.6308     0.6075 F            1    LIG   0.0000
   4 F4           0.1489    -2.6587     0.6075 F            1    LIG   0.0000
   5 C5           1.2094    -0.6790    -0.0110 C.ar         1    LIG   0.0000
   6 C6          -0.0114    -0.0133     0.0033 C.ar         1    LIG   0.0000
   7 C7          -0.0171     1.3778     0.0102 C.ar         1    LIG   0.0000
   8 Br8         -1.7272     2.3349     0.0310 Br           1    LIG   0.0000
   9 C9           1.1708     2.1015     0.0028 C.ar         1    LIG   0.0000
  10 C10          2.3780     1.4107    -0.0123 C.ar         1    LIG   0.0000
  11 O11          3.5371     2.1016    -0.0208 O.3          1    LIG   0.0000
  12 C12          4.0484     2.3937     1.1937 C.2          1    LIG   0.0000
  13 N13          4.8820     1.6674     1.8993 N.2          1    LIG   0.0000
  14 C14          5.2478     2.2006     3.1097 C.2          1    LIG   0.0000
  15 C15          4.7040     3.4082     3.4287 C.2          1    LIG   0.0000
  16 S16          3.7135     3.7985     2.0962 S.3          1    LIG   0.0000
  17 C17          2.4116     0.0206    -0.0197 C.ar         1    LIG   0.0000
  18 H           -0.8702    -0.5256     0.0085 H            1    LIG   0.0000
  19 H            1.1571     3.1014     0.0083 H            1    LIG   0.0000
  20 H            5.8794     1.7283     3.7244 H            1    LIG   0.0000
  21 H            4.8524     3.9457     4.2587 H            1    LIG   0.0000
  22 H            3.2844    -0.4674    -0.0310 H            1    LIG   0.0000
@<TRIPOS>BOND
   1        1        2 1
   2        2        3 1
   3        2        4 1
   4        2        5 1
   5        5        6 ar
   6        6        7 ar
   7        7        8 1
   8        7        9 ar
   9        9       10 ar
  10       10       11 1
  11       11       12 1
  12       12       13 2
  13       13       14 1
  14       14       15 2
  15       15       16 1
  16       16       12 1
  17       10       17 ar
  18       17        5 ar
  19        6       18 1
  20        9       19 1
  21       14       20 1
  22       15       21 1
  23       17       22 1

@<TRIPOS>MOLECULE

  22   23
SMALL
USER_CHARGES
@<TRIPOS>ATOM
   1 F1           1.2346    -2.6366    -1.2734 F            1    LIG   0.0000
   2 C2           1.2290    -2.1987    -0.0175 C.3          1    LIG   0.0000
   3 F3           2.3206    -2.6308     0.6075 F            1    LIG   0.0000
   4 F4           0.1489    -2.6587     0.6075 F            1    LIG   0.0000
   5 C5           1.2094    -0.6790    -0.0110 C.ar         1    LIG   0.0000
   6 C6          -0.0114    -0.0133     0.0033 C.ar         1    LIG   0.0000
   7 C7          -0.0171     1.3778     0.0102 C.ar         1    LIG   0.0000
   8 Br8         -1.7272     2.3349     0.0310 Br           1    LIG   0.0000
   9 C9           1.1708     2.1015     0.0028 C.ar         1    LIG   0.0000
  10 C10          2.3780     1.4107    -0.0123 C.ar         1    LIG   0.0000
  11 O11          3.5371     2.1016    -0.0208 O.3          1    LIG   0.0000
  12 C12          4.0484     2.3937     1.1937 C.2          1    LIG   0.0000
  13 N13          3.8160     3.4634     1.9162 N.2          1    LIG   0.0000
  14 C14          4.4678     3.5114     3.1228 C.2          1    LIG   0.0000
  15 C15          5.2710     2.4520     3.4199 C.2          1    LIG   0.0000
  16 S16          5.1328     1.4169     2.0714 S.3          1    LIG   0.0000
  17 C17          2.4116     0.0206    -0.0197 C.ar         1    LIG   0.0000
  18 H           -0.8702    -0.5256     0.0085 H            1    LIG   0.0000
  19 H            1.1571     3.1014     0.0083 H            1    LIG   0.0000
  20 H            4.3591     4.2825     3.7502 H            1    LIG   0.0000
  21 H            5.8192     2.3124     4.2445 H            1    LIG   0.0000
  22 H            3.2844    -0.4674    -0.0310 H            1    LIG   0.0000
@<TRIPOS>BOND
   1        1        2 1
   2        2        3 1
   3        2        4 1
   4        2        5 1
   5        5        6 ar
   6        6        7 ar
   7        7        8 1
   8        7        9 ar
   9        9       10 ar
  10       10       11 1
  11       11       12 1
  12       12       13 2
  13       13       14 1
  14       14       15 2
  15       15       16 1
  16       16       12 1
  17       10       17 ar
  18       17        5 ar
  19        6       18 1
  20        9       19 1
  21       14       20 1
  22       15       21 1
  23       17       22 1

@<TRIPOS>MOLECULE

  22   23
SMALL
USER_CHARGES
@<TRIPOS>ATOM
   1 F1           1.2346    -2.6366    -1.2734 F            1    LIG   0.0000
   2 C2           1.2290    -2.1987    -0.0175 C.3          1    LIG   0.0000
   3 F3           2.3206    -2.6308     0.6075 F            1    LIG   0.0000
   4 F4           0.1489    -2.6587     0.6075 F            1    LIG   0.0000
   5 C5           1.2094    -0.6790    -0.0110 C.ar         1    LIG   0.0000
   6 C6          -0.0114    -0.0133     0.0033 C.ar         1    LIG   0.0000
   7 C7          -0.0171     1.3778     0.0102 C.ar         1    LIG   0.0000
   8 Br8         -1.7272     2.3349     0.0310 Br           1    LIG   0.0000
   9 C9           1.1708     2.1015     0.0028 C.ar         1    LIG   0.0000
  10 C10          2.3780     1.4107    -0.0123 C.ar         1    LIG   0.0000
  11 O11          3.5371     2.1016    -0.0208 O.3          1    LIG   0.0000
  12 C12          4.0240     2.4045    -1.2426 C.2          1    LIG   0.0000
  13 N13          3.7741     3.4787    -1.9526 N.2          1    LIG   0.0000
  14 C14          4.4040     3.5388    -3.1703 C.2          1    LIG   0.0000
  15 C15          5.2040     2.4840    -3.4911 C.2          1    LIG   0.0000
  16 S16          5.0906     1.4357    -2.1506 S.3          1    LIG   0.0000
  17 C17          2.4116     0.0206    -0.0197 C.ar         1    LIG   0.0000
  18 H           -0.8702    -0.5256     0.0085 H            1    LIG   0.0000
  19 H            1.1571     3.1014     0.0083 H            1    LIG   0.0000
  20 H            4.2823     4.3152    -3.7887 H            1    LIG   0.0000
  21 H            5.7384     2.3534    -4.3262 H            1    LIG   0.0000
  22 H            3.2844    -0.4674    -0.0310 H            1    LIG   0.0000
@<TRIPOS>BOND
   1        1        2 1
   2        2        3 1
   3        2        4 1
   4        2        5 1
   5        5        6 ar
   6        6        7 ar
   7        7        8 1
   8        7        9 ar
   9        9       10 ar
  10       10       11 1
  11       11       12 1
  12       12       13 2
  13       13       14 1
  14       14       15 2
  15       15       16 1
  16       16       12 1
  17       10       17 ar
  18       17        5 ar
  19        6       18 1
  20        9       19 1
  21       14       20 1
  22       15       21 1
  23       17       22 1

@<TRIPOS>MOLECULE

  22   23
SMALL
USER_CHARGES
@<TRIPOS>ATOM
   1 F1           1.2346    -2.6366    -1.2734 F            1    LIG   0.0000
   2 C2           1.2290    -2.1987    -0.0175 C.3          1    LIG   0.0000
   3 F3           2.3206    -2.6308     0.6075 F            1    LIG   0.0000
   4 F4           0.1489    -2.6587     0.6075 F            1    LIG   0.0000
   5 C5           1.2094    -0.6790    -0.0110 C.ar         1    LIG   0.0000
   6 C6          -0.0114    -0.0133     0.0033 C.ar         1    LIG   0.0000
   7 C7          -0.0171     1.3778     0.0102 C.ar         1    LIG   0.0000
   8 Br8         -1.7272     2.3349     0.0310 Br           1    LIG   0.0000
   9 C9           1.1708     2.1015     0.0028 C.ar         1    LIG   0.0000
  10 C10          2.3780     1.4107    -0.0123 C.ar         1    LIG   0.0000
  11 O11          3.5371     2.1016    -0.0208 O.3          1    LIG   0.0000
  12 C12          4.0240     2.4045    -1.2426 C.2          1    LIG   0.0000
  13 N13          4.8466     1.6865    -1.9695 N.2          1    LIG   0.0000
  14 C14          5.1858     2.2292    -3.1834 C.2          1    LIG   0.0000
  15 C15          4.6328     3.4377    -3.4823 C.2          1    LIG   0.0000
  16 S16          3.6713     3.8173    -2.1258 S.3          1    LIG   0.0000
  17 C17          2.4116     0.0206    -0.0197 C.ar         1    LIG   0.0000
  18 H           -0.8702    -0.5256     0.0085 H            1    LIG   0.0000
  19 H            1.1571     3.1014     0.0083 H            1    LIG   0.0000
  20 H            5.8055     1.7626    -3.8145 H            1    LIG   0.0000
  21 H            4.7618     3.9809    -4.3119 H            1    LIG   0.0000
  22 H            3.2844    -0.4674    -0.0310 H            1    LIG   0.0000
@<TRIPOS>BOND
   1        1        2 1
   2        2        3 1
   3        2        4 1
   4        2        5 1
   5        5        6 ar
   6        6        7 ar
   7        7        8 1
   8        7        9 ar
   9        9       10 ar
  10       10       11 1
  11       11       12 1
  12       12       13 2
  13       13       14 1
  14       14       15 2
  15       15       16 1
  16       16       12 1
  17       10       17 ar
  18       17        5 ar
  19        6       18 1
  20        9       19 1
  21       14       20 1
  22       15       21 1
  23       17       22 1

