@<TRIPOS>MOLECULE
*****
 22 23 0 0 0
SMALL
USER_CHARGES

@<TRIPOS>ATOM
      1 F1          1.2346   -2.6366   -1.2734 F       1  LIG1        0.0000
      2 C2          1.2290   -2.1987   -0.0175 C.3     1  LIG1        0.0000
      3 F3          2.3206   -2.6308    0.6075 F       1  LIG1        0.0000
      4 F4          0.1489   -2.6587    0.6075 F       1  LIG1        0.0000
      5 C5          1.2094   -0.6790   -0.0110 C.ar    1  LIG1        0.0000
      6 C6         -0.0114   -0.0133    0.0033 C.ar    1  LIG1        0.0000
      7 C7         -0.0171    1.3778    0.0102 C.ar    1  LIG1        0.0000
      8 Br8        -1.7272    2.3349    0.0310 Br      1  LIG1        0.0000
      9 C9          1.1708    2.1015    0.0028 C.ar    1  LIG1        0.0000
     10 C10         2.3780    1.4107   -0.0123 C.ar    1  LIG1        0.0000
     11 O11         3.5371    2.1016   -0.0208 O.3     1  LIG1        0.0000
     12 C12         3.5866    3.1428   -0.8781 C.2     1  LIG1        0.0000
     13 N13         2.6409    3.5457   -1.6928 N.2     1  LIG1        0.0000
     14 C14         2.9528    4.6389   -2.4615 C.2     1  LIG1        0.0000
     15 C15         4.1964    5.1669   -2.2873 C.2     1  LIG1        0.0000
     16 S16         4.9180    4.1823   -1.0962 S.3     1  LIG1        0.0000
     17 C17         2.4116    0.0206   -0.0197 C.ar    1  LIG1        0.0000
     18 H          -0.8702   -0.5256    0.0085 H       1  LIG1        0.0000
     19 H           1.1571    3.1014    0.0083 H       1  LIG1        0.0000
     20 H           2.3022    5.0270   -3.1143 H       1  LIG1        0.0000
     21 H           4.5968    5.9556   -2.7537 H       1  LIG1        0.0000
     22 H           3.2844   -0.4674   -0.0310 H       1  LIG1        0.0000
@<TRIPOS>BOND
     1     1     2    1
     2     2     3    1
     3     2     4    1
     4     2     5    1
     5     5     6   ar
     6     6     7   ar
     7     7     8    1
     8     7     9   ar
     9     9    10   ar
    10    10    11    1
    11    11    12    1
    12    12    13    2
    13    13    14    1
    14    14    15    2
    15    15    16    1
    16    16    12    1
    17    10    17   ar
    18    17     5   ar
    19     6    18    1
    20     9    19    1
    21    14    20    1
    22    15    21    1
    23    17    22    1
