@<TRIPOS>MOLECULE

  65   69
SMALL
USER_CHARGES
@<TRIPOS>ATOM
   1 C1           6.4012    -1.4020     2.2873 C.3          1    LIG   0.0000
   2 C2           5.6988    -1.3622     0.9399 C.3          1    LIG   0.0000
   3 O3           4.4533    -0.6938     1.0749 O.3          1    LIG   0.0000
   4 C4           3.7458    -0.5923    -0.0229 C.2          1    LIG   0.0000
   5 O5           4.1640    -1.0493    -1.0507 O.2          1    LIG   0.0000
   6 C6           2.4573     0.0723     0.0038 C.2          1    LIG   0.0000
   7 C7           2.4110     1.3985    -0.0229 C.2          1    LIG   0.0000
   8 C8           3.6837     2.2307    -0.0749 C.3          1    LIG   0.0000
   9 N9           3.7468     3.1039     1.1060 N.pl3        1    LIG   0.0000
  10 C10          4.8342     3.9684     1.2801 C.ar         1    LIG   0.0000
  11 C11          5.8493     3.9935     0.3291 C.ar         1    LIG   0.0000
  12 C12          6.9247     4.8561     0.5127 C.ar         1    LIG   0.0000
  13 C13          6.9909     5.6853     1.6273 C.ar         1    LIG   0.0000
  14 C14          5.9647     5.6439     2.5654 C.ar         1    LIG   0.0000
  15 C15          6.0252     6.5042     3.7311 C.2          1    LIG   0.0000
  16 O16          6.9424     6.4102     4.4992 O.2          1    LIG   0.0000
  17 N17          5.0134     7.4449     3.9604 N.am         1    LIG   0.0000
  18 C18          4.9223     8.3443     5.1091 C.3          1    LIG   0.0000
  19 C19          3.4211     8.4525     5.2935 C.3          1    LIG   0.0000
  20 C20          2.9007     8.2839     3.8797 C.ar         1    LIG   0.0000
  21 C21          1.6711     8.6273     3.3273 C.ar         1    LIG   0.0000
  22 C22          1.4297     8.3349     1.9895 C.ar         1    LIG   0.0000
  23 C23          2.4166     7.7088     1.2354 C.ar         1    LIG   0.0000
  24 C24          3.6353     7.3793     1.8200 C.ar         1    LIG   0.0000
  25 C25          3.8947     7.6639     3.1578 C.ar         1    LIG   0.0000
  26 C26          4.8801     4.7886     2.4023 C.ar         1    LIG   0.0000
  27 N27          1.1894     2.0815    -0.0175 N.am         1    LIG   0.0000
  28 C28         -0.0256     1.3841     0.0124 C.2          1    LIG   0.0000
  29 O29         -1.0884     1.9815     0.0178 O.2          1    LIG   0.0000
  30 N30         -0.0457    -0.0182     0.0401 N.am         1    LIG   0.0000
  31 C31          1.2053    -0.7903     0.0544 C.3          1    LIG   0.0000
  32 C32          1.2206    -1.8604    -1.0253 C.ar         1    LIG   0.0000
  33 C33          1.7546    -3.1138    -0.7444 C.ar         1    LIG   0.0000
  34 C34          1.7652    -4.0867    -1.7383 C.ar         1    LIG   0.0000
  35 C35          1.2452    -3.8018    -2.9973 C.ar         1    LIG   0.0000
  36 C36          0.7130    -2.5457    -3.2693 C.ar         1    LIG   0.0000
  37 C37          0.6990    -1.5666    -2.2809 C.ar         1    LIG   0.0000
  38 H            1.2297    -1.2724     0.9302 H            1    LIG   0.0000
  39 H            7.2784    -1.8727     2.1922 H            1    LIG   0.0000
  40 H            6.5572    -0.4683     2.6096 H            1    LIG   0.0000
  41 H            5.8302    -1.8912     2.9465 H            1    LIG   0.0000
  42 H            6.2699    -0.8730     0.2806 H            1    LIG   0.0000
  43 H            5.5429    -2.2959     0.6175 H            1    LIG   0.0000
  44 H            4.4786     1.6240    -0.0837 H            1    LIG   0.0000
  45 H            3.6824     2.7904    -0.9036 H            1    LIG   0.0000
  46 H            3.0131     3.0803     1.7851 H            1    LIG   0.0000
  47 H            5.8064     3.4000    -0.4746 H            1    LIG   0.0000
  48 H            7.6594     4.8805    -0.1652 H            1    LIG   0.0000
  49 H            7.7667     6.3037     1.7527 H            1    LIG   0.0000
  50 H            5.3304     9.2349     4.9084 H            1    LIG   0.0000
  51 H            5.3616     7.9506     5.9165 H            1    LIG   0.0000
  52 H            3.0781     7.7293     5.8930 H            1    LIG   0.0000
  53 H            3.1668     9.3443     5.6677 H            1    LIG   0.0000
  54 H            0.9722     9.0772     3.8832 H            1    LIG   0.0000
  55 H            0.5525     8.5730     1.5725 H            1    LIG   0.0000
  56 H            2.2500     7.4954     0.2728 H            1    LIG   0.0000
  57 H            4.3382     6.9295     1.2689 H            1    LIG   0.0000
  58 H            4.1457     4.7639     3.0805 H            1    LIG   0.0000
  59 H            1.1836     3.0813    -0.0353 H            1    LIG   0.0000
  60 H           -0.9224    -0.4990     0.0503 H            1    LIG   0.0000
  61 H            2.1267    -3.3131     0.1621 H            1    LIG   0.0000
  62 H            2.1467    -4.9913    -1.5482 H            1    LIG   0.0000
  63 H            1.2543    -4.5033    -3.7098 H            1    LIG   0.0000
  64 H            0.3402    -2.3464    -4.1755 H            1    LIG   0.0000
  65 H            0.3183    -0.6617    -2.4711 H            1    LIG   0.0000
@<TRIPOS>BOND
   1        1        2 1
   2        2        3 1
   3        3        4 1
   4        4        5 2
   5        4        6 1
   6        6        7 2
   7        7        8 1
   8        8        9 1
   9        9       10 1
  10       10       11 ar
  11       11       12 ar
  12       12       13 ar
  13       13       14 ar
  14       14       15 1
  15       15       16 2
  16       15       17 am
  17       17       18 1
  18       18       19 1
  19       19       20 1
  20       20       21 ar
  21       21       22 ar
  22       22       23 ar
  23       23       24 ar
  24       24       25 ar
  25       25       20 ar
  26       25       17 1
  27       14       26 ar
  28       26       10 ar
  29        7       27 1
  30       27       28 am
  31       28       29 2
  32       28       30 am
  33       30       31 1
  34       31        6 1
  35       31       32 1
  36       32       33 ar
  37       33       34 ar
  38       34       35 ar
  39       35       36 ar
  40       36       37 ar
  41       37       32 ar
  42       31       38 1
  43        1       39 1
  44        1       40 1
  45        1       41 1
  46        2       42 1
  47        2       43 1
  48        8       44 1
  49        8       45 1
  50        9       46 1
  51       11       47 1
  52       12       48 1
  53       13       49 1
  54       18       50 1
  55       18       51 1
  56       19       52 1
  57       19       53 1
  58       21       54 1
  59       22       55 1
  60       23       56 1
  61       24       57 1
  62       26       58 1
  63       27       59 1
  64       30       60 1
  65       33       61 1
  66       34       62 1
  67       35       63 1
  68       36       64 1
  69       37       65 1

@<TRIPOS>MOLECULE

  65   69
SMALL
USER_CHARGES
@<TRIPOS>ATOM
   1 C1           6.4012    -1.4020     2.2873 C.3          1    LIG   0.0000
   2 C2           5.6988    -1.3622     0.9399 C.3          1    LIG   0.0000
   3 O3           4.4533    -0.6938     1.0749 O.3          1    LIG   0.0000
   4 C4           3.7458    -0.5923    -0.0229 C.2          1    LIG   0.0000
   5 O5           4.1640    -1.0493    -1.0507 O.2          1    LIG   0.0000
   6 C6           2.4573     0.0723     0.0038 C.2          1    LIG   0.0000
   7 C7           2.4110     1.3985    -0.0229 C.2          1    LIG   0.0000
   8 C8           3.6837     2.2307    -0.0749 C.3          1    LIG   0.0000
   9 N9           3.7468     3.1039     1.1060 N.pl3        1    LIG   0.0000
  10 C10          4.8342     3.9684     1.2801 C.ar         1    LIG   0.0000
  11 C11          5.8493     3.9935     0.3291 C.ar         1    LIG   0.0000
  12 C12          6.9247     4.8561     0.5127 C.ar         1    LIG   0.0000
  13 C13          6.9909     5.6853     1.6273 C.ar         1    LIG   0.0000
  14 C14          5.9647     5.6439     2.5654 C.ar         1    LIG   0.0000
  15 C15          6.0252     6.5042     3.7311 C.2          1    LIG   0.0000
  16 O16          6.9424     6.4102     4.4992 O.2          1    LIG   0.0000
  17 N17          5.0134     7.4449     3.9604 N.am         1    LIG   0.0000
  18 C18          3.8646     7.6981     3.0928 C.3          1    LIG   0.0000
  19 C19          3.6497     9.1851     3.2974 C.3          1    LIG   0.0000
  20 C20          4.1250     9.3956     4.7213 C.ar         1    LIG   0.0000
  21 C21          3.8682    10.4340     5.6107 C.ar         1    LIG   0.0000
  22 C22          4.4580    10.4026     6.8695 C.ar         1    LIG   0.0000
  23 C23          5.2876     9.3400     7.2118 C.ar         1    LIG   0.0000
  24 C24          5.5228     8.3179     6.2977 C.ar         1    LIG   0.0000
  25 C25          4.9414     8.3326     5.0329 C.ar         1    LIG   0.0000
  26 C26          4.8801     4.7886     2.4023 C.ar         1    LIG   0.0000
  27 N27          1.1894     2.0815    -0.0175 N.am         1    LIG   0.0000
  28 C28         -0.0256     1.3841     0.0124 C.2          1    LIG   0.0000
  29 O29         -1.0884     1.9815     0.0178 O.2          1    LIG   0.0000
  30 N30         -0.0457    -0.0182     0.0401 N.am         1    LIG   0.0000
  31 C31          1.2053    -0.7903     0.0544 C.3          1    LIG   0.0000
  32 C32          1.2206    -1.8604    -1.0253 C.ar         1    LIG   0.0000
  33 C33          1.7546    -3.1138    -0.7444 C.ar         1    LIG   0.0000
  34 C34          1.7652    -4.0867    -1.7383 C.ar         1    LIG   0.0000
  35 C35          1.2452    -3.8018    -2.9973 C.ar         1    LIG   0.0000
  36 C36          0.7130    -2.5457    -3.2693 C.ar         1    LIG   0.0000
  37 C37          0.6990    -1.5666    -2.2809 C.ar         1    LIG   0.0000
  38 H            1.2297    -1.2724     0.9302 H            1    LIG   0.0000
  39 H            7.2784    -1.8727     2.1922 H            1    LIG   0.0000
  40 H            6.5572    -0.4683     2.6096 H            1    LIG   0.0000
  41 H            5.8302    -1.8912     2.9465 H            1    LIG   0.0000
  42 H            6.2699    -0.8730     0.2806 H            1    LIG   0.0000
  43 H            5.5429    -2.2959     0.6175 H            1    LIG   0.0000
  44 H            4.4786     1.6240    -0.0837 H            1    LIG   0.0000
  45 H            3.6824     2.7904    -0.9036 H            1    LIG   0.0000
  46 H            3.0131     3.0803     1.7851 H            1    LIG   0.0000
  47 H            5.8064     3.4000    -0.4746 H            1    LIG   0.0000
  48 H            7.6594     4.8805    -0.1652 H            1    LIG   0.0000
  49 H            7.7667     6.3037     1.7527 H            1    LIG   0.0000
  50 H            3.0656     7.1708     3.3820 H            1    LIG   0.0000
  51 H            4.0750     7.4878     2.1381 H            1    LIG   0.0000
  52 H            4.1946     9.7206     2.6521 H            1    LIG   0.0000
  53 H            2.6844     9.4271     3.1996 H            1    LIG   0.0000
  54 H            3.2691    11.1907     5.3490 H            1    LIG   0.0000
  55 H            4.2868    11.1389     7.5241 H            1    LIG   0.0000
  56 H            5.7152     9.3107     8.1153 H            1    LIG   0.0000
  57 H            6.1208     7.5585     6.5539 H            1    LIG   0.0000
  58 H            4.1457     4.7639     3.0805 H            1    LIG   0.0000
  59 H            1.1836     3.0813    -0.0353 H            1    LIG   0.0000
  60 H           -0.9224    -0.4990     0.0503 H            1    LIG   0.0000
  61 H            2.1267    -3.3131     0.1621 H            1    LIG   0.0000
  62 H            2.1467    -4.9913    -1.5482 H            1    LIG   0.0000
  63 H            1.2543    -4.5033    -3.7098 H            1    LIG   0.0000
  64 H            0.3402    -2.3464    -4.1755 H            1    LIG   0.0000
  65 H            0.3183    -0.6617    -2.4711 H            1    LIG   0.0000
@<TRIPOS>BOND
   1        1        2 1
   2        2        3 1
   3        3        4 1
   4        4        5 2
   5        4        6 1
   6        6        7 2
   7        7        8 1
   8        8        9 1
   9        9       10 1
  10       10       11 ar
  11       11       12 ar
  12       12       13 ar
  13       13       14 ar
  14       14       15 1
  15       15       16 2
  16       15       17 am
  17       17       18 1
  18       18       19 1
  19       19       20 1
  20       20       21 ar
  21       21       22 ar
  22       22       23 ar
  23       23       24 ar
  24       24       25 ar
  25       25       20 ar
  26       25       17 1
  27       14       26 ar
  28       26       10 ar
  29        7       27 1
  30       27       28 am
  31       28       29 2
  32       28       30 am
  33       30       31 1
  34       31        6 1
  35       31       32 1
  36       32       33 ar
  37       33       34 ar
  38       34       35 ar
  39       35       36 ar
  40       36       37 ar
  41       37       32 ar
  42       31       38 1
  43        1       39 1
  44        1       40 1
  45        1       41 1
  46        2       42 1
  47        2       43 1
  48        8       44 1
  49        8       45 1
  50        9       46 1
  51       11       47 1
  52       12       48 1
  53       13       49 1
  54       18       50 1
  55       18       51 1
  56       19       52 1
  57       19       53 1
  58       21       54 1
  59       22       55 1
  60       23       56 1
  61       24       57 1
  62       26       58 1
  63       27       59 1
  64       30       60 1
  65       33       61 1
  66       34       62 1
  67       35       63 1
  68       36       64 1
  69       37       65 1

@<TRIPOS>MOLECULE

  65   69
SMALL
USER_CHARGES
@<TRIPOS>ATOM
   1 C1           6.4012    -1.4020     2.2873 C.3          1    LIG   0.0000
   2 C2           5.6988    -1.3622     0.9399 C.3          1    LIG   0.0000
   3 O3           4.4533    -0.6938     1.0749 O.3          1    LIG   0.0000
   4 C4           3.7458    -0.5923    -0.0229 C.2          1    LIG   0.0000
   5 O5           4.1640    -1.0493    -1.0507 O.2          1    LIG   0.0000
   6 C6           2.4573     0.0723     0.0038 C.2          1    LIG   0.0000
   7 C7           2.4110     1.3985    -0.0229 C.2          1    LIG   0.0000
   8 C8           3.6837     2.2307    -0.0749 C.3          1    LIG   0.0000
   9 N9           3.7468     3.1039     1.1060 N.pl3        1    LIG   0.0000
  10 C10          4.8342     3.9684     1.2801 C.ar         1    LIG   0.0000
  11 C11          5.8493     3.9935     0.3291 C.ar         1    LIG   0.0000
  12 C12          6.9247     4.8561     0.5127 C.ar         1    LIG   0.0000
  13 C13          6.9909     5.6853     1.6273 C.ar         1    LIG   0.0000
  14 C14          5.9647     5.6439     2.5654 C.ar         1    LIG   0.0000
  15 C15          6.0252     6.5042     3.7311 C.2          1    LIG   0.0000
  16 O16          6.0644     7.6960     3.5958 O.2          1    LIG   0.0000
  17 N17          6.0380     5.9457     5.0116 N.am         1    LIG   0.0000
  18 C18          6.0591     6.6993     6.2632 C.3          1    LIG   0.0000
  19 C19          5.2712     5.7720     7.1671 C.3          1    LIG   0.0000
  20 C20          5.5615     4.3955     6.6014 C.ar         1    LIG   0.0000
  21 C21          5.4229     3.1518     7.2095 C.ar         1    LIG   0.0000
  22 C22          5.7204     2.0191     6.4593 C.ar         1    LIG   0.0000
  23 C23          6.1490     2.1622     5.1431 C.ar         1    LIG   0.0000
  24 C24          6.2846     3.4305     4.5844 C.ar         1    LIG   0.0000
  25 C25          5.9969     4.5847     5.3078 C.ar         1    LIG   0.0000
  26 C26          4.8801     4.7886     2.4023 C.ar         1    LIG   0.0000
  27 N27          1.1894     2.0815    -0.0175 N.am         1    LIG   0.0000
  28 C28         -0.0256     1.3841     0.0124 C.2          1    LIG   0.0000
  29 O29         -1.0884     1.9815     0.0178 O.2          1    LIG   0.0000
  30 N30         -0.0457    -0.0182     0.0401 N.am         1    LIG   0.0000
  31 C31          1.2053    -0.7903     0.0544 C.3          1    LIG   0.0000
  32 C32          1.2206    -1.8604    -1.0253 C.ar         1    LIG   0.0000
  33 C33          1.7546    -3.1138    -0.7444 C.ar         1    LIG   0.0000
  34 C34          1.7652    -4.0867    -1.7383 C.ar         1    LIG   0.0000
  35 C35          1.2452    -3.8018    -2.9973 C.ar         1    LIG   0.0000
  36 C36          0.7130    -2.5457    -3.2693 C.ar         1    LIG   0.0000
  37 C37          0.6990    -1.5666    -2.2809 C.ar         1    LIG   0.0000
  38 H            1.2297    -1.2724     0.9302 H            1    LIG   0.0000
  39 H            7.2784    -1.8727     2.1922 H            1    LIG   0.0000
  40 H            6.5572    -0.4683     2.6096 H            1    LIG   0.0000
  41 H            5.8302    -1.8912     2.9465 H            1    LIG   0.0000
  42 H            6.2699    -0.8730     0.2806 H            1    LIG   0.0000
  43 H            5.5429    -2.2959     0.6175 H            1    LIG   0.0000
  44 H            4.4786     1.6240    -0.0837 H            1    LIG   0.0000
  45 H            3.6824     2.7904    -0.9036 H            1    LIG   0.0000
  46 H            3.0131     3.0803     1.7851 H            1    LIG   0.0000
  47 H            5.8064     3.4000    -0.4746 H            1    LIG   0.0000
  48 H            7.6594     4.8805    -0.1652 H            1    LIG   0.0000
  49 H            7.7667     6.3037     1.7527 H            1    LIG   0.0000
  50 H            5.6097     7.5873     6.1655 H            1    LIG   0.0000
  51 H            6.9923     6.8328     6.5966 H            1    LIG   0.0000
  52 H            5.5859     5.8431     8.1136 H            1    LIG   0.0000
  53 H            4.2934     5.9770     7.1246 H            1    LIG   0.0000
  54 H            5.1182     3.0746     8.1588 H            1    LIG   0.0000
  55 H            5.6271     1.1088     6.8626 H            1    LIG   0.0000
  56 H            6.3602     1.3516     4.5968 H            1    LIG   0.0000
  57 H            6.5970     3.5145     3.6382 H            1    LIG   0.0000
  58 H            4.1457     4.7639     3.0805 H            1    LIG   0.0000
  59 H            1.1836     3.0813    -0.0353 H            1    LIG   0.0000
  60 H           -0.9224    -0.4990     0.0503 H            1    LIG   0.0000
  61 H            2.1267    -3.3131     0.1621 H            1    LIG   0.0000
  62 H            2.1467    -4.9913    -1.5482 H            1    LIG   0.0000
  63 H            1.2543    -4.5033    -3.7098 H            1    LIG   0.0000
  64 H            0.3402    -2.3464    -4.1755 H            1    LIG   0.0000
  65 H            0.3183    -0.6617    -2.4711 H            1    LIG   0.0000
@<TRIPOS>BOND
   1        1        2 1
   2        2        3 1
   3        3        4 1
   4        4        5 2
   5        4        6 1
   6        6        7 2
   7        7        8 1
   8        8        9 1
   9        9       10 1
  10       10       11 ar
  11       11       12 ar
  12       12       13 ar
  13       13       14 ar
  14       14       15 1
  15       15       16 2
  16       15       17 am
  17       17       18 1
  18       18       19 1
  19       19       20 1
  20       20       21 ar
  21       21       22 ar
  22       22       23 ar
  23       23       24 ar
  24       24       25 ar
  25       25       20 ar
  26       25       17 1
  27       14       26 ar
  28       26       10 ar
  29        7       27 1
  30       27       28 am
  31       28       29 2
  32       28       30 am
  33       30       31 1
  34       31        6 1
  35       31       32 1
  36       32       33 ar
  37       33       34 ar
  38       34       35 ar
  39       35       36 ar
  40       36       37 ar
  41       37       32 ar
  42       31       38 1
  43        1       39 1
  44        1       40 1
  45        1       41 1
  46        2       42 1
  47        2       43 1
  48        8       44 1
  49        8       45 1
  50        9       46 1
  51       11       47 1
  52       12       48 1
  53       13       49 1
  54       18       50 1
  55       18       51 1
  56       19       52 1
  57       19       53 1
  58       21       54 1
  59       22       55 1
  60       23       56 1
  61       24       57 1
  62       26       58 1
  63       27       59 1
  64       30       60 1
  65       33       61 1
  66       34       62 1
  67       35       63 1
  68       36       64 1
  69       37       65 1

@<TRIPOS>MOLECULE

  65   69
SMALL
USER_CHARGES
@<TRIPOS>ATOM
   1 C1           6.2510    -1.5025    -2.4600 C.3          1    LIG   0.0000
   2 C2           5.6351    -1.4048    -1.0738 C.3          1    LIG   0.0000
   3 O3           4.3826    -0.7411    -1.1580 O.3          1    LIG   0.0000
   4 C4           3.7458    -0.5923    -0.0229 C.2          1    LIG   0.0000
   5 O5           4.2287    -1.0060     0.9947 O.2          1    LIG   0.0000
   6 C6           2.4573     0.0723     0.0038 C.2          1    LIG   0.0000
   7 C7           2.4110     1.3985    -0.0229 C.2          1    LIG   0.0000
   8 C8           3.6837     2.2307    -0.0749 C.3          1    LIG   0.0000
   9 N9           3.7468     3.1039     1.1060 N.pl3        1    LIG   0.0000
  10 C10          4.8342     3.9684     1.2801 C.ar         1    LIG   0.0000
  11 C11          5.8493     3.9935     0.3291 C.ar         1    LIG   0.0000
  12 C12          6.9247     4.8561     0.5127 C.ar         1    LIG   0.0000
  13 C13          6.9909     5.6853     1.6273 C.ar         1    LIG   0.0000
  14 C14          5.9647     5.6439     2.5654 C.ar         1    LIG   0.0000
  15 C15          6.0252     6.5042     3.7311 C.2          1    LIG   0.0000
  16 O16          5.5190     6.1550     4.7615 O.2          1    LIG   0.0000
  17 N17          6.6730     7.7398     3.6545 N.am         1    LIG   0.0000
  18 C18          7.2941     8.2965     2.4549 C.3          1    LIG   0.0000
  19 C19          7.0651     9.7783     2.6774 C.3          1    LIG   0.0000
  20 C20          7.0610     9.9129     4.1876 C.ar         1    LIG   0.0000
  21 C21          7.2573    11.0494     4.9660 C.ar         1    LIG   0.0000
  22 C22          7.1654    10.9207     6.3478 C.ar         1    LIG   0.0000
  23 C23          6.8909     9.6746     6.9031 C.ar         1    LIG   0.0000
  24 C24          6.7160     8.5644     6.0810 C.ar         1    LIG   0.0000
  25 C25          6.8030     8.6579     4.6946 C.ar         1    LIG   0.0000
  26 C26          4.8801     4.7886     2.4023 C.ar         1    LIG   0.0000
  27 N27          1.1894     2.0815    -0.0175 N.am         1    LIG   0.0000
  28 C28         -0.0256     1.3841     0.0124 C.2          1    LIG   0.0000
  29 O29         -1.0884     1.9815     0.0178 O.2          1    LIG   0.0000
  30 N30         -0.0457    -0.0182     0.0401 N.am         1    LIG   0.0000
  31 C31          1.2053    -0.7903     0.0544 C.3          1    LIG   0.0000
  32 C32          1.2206    -1.8604    -1.0253 C.ar         1    LIG   0.0000
  33 C33          0.8974    -1.5212    -2.3350 C.ar         1    LIG   0.0000
  34 C34          0.9133    -2.5067    -3.3164 C.ar         1    LIG   0.0000
  35 C35          1.2501    -3.8153    -2.9838 C.ar         1    LIG   0.0000
  36 C36          1.5722    -4.1455    -1.6714 C.ar         1    LIG   0.0000
  37 C37          1.5582    -3.1659    -0.6836 C.ar         1    LIG   0.0000
  38 H            1.2297    -1.2724     0.9302 H            1    LIG   0.0000
  39 H            7.1331    -1.9699    -2.4007 H            1    LIG   0.0000
  40 H            5.6401    -2.0184    -3.0605 H            1    LIG   0.0000
  41 H            6.3850    -0.5835    -2.8307 H            1    LIG   0.0000
  42 H            5.5011    -2.3238    -0.7030 H            1    LIG   0.0000
  43 H            6.2460    -0.8889    -0.4732 H            1    LIG   0.0000
  44 H            4.4786     1.6240    -0.0837 H            1    LIG   0.0000
  45 H            3.6824     2.7904    -0.9036 H            1    LIG   0.0000
  46 H            3.0131     3.0803     1.7851 H            1    LIG   0.0000
  47 H            5.8064     3.4000    -0.4746 H            1    LIG   0.0000
  48 H            7.6594     4.8805    -0.1652 H            1    LIG   0.0000
  49 H            7.7667     6.3037     1.7527 H            1    LIG   0.0000
  50 H            6.8414     7.9751     1.6232 H            1    LIG   0.0000
  51 H            8.2688     8.0775     2.4098 H            1    LIG   0.0000
  52 H            7.8026    10.3187     2.2723 H            1    LIG   0.0000
  53 H            6.1893    10.0667     2.2904 H            1    LIG   0.0000
  54 H            7.4587    11.9333     4.5439 H            1    LIG   0.0000
  55 H            7.2957    11.7176     6.9378 H            1    LIG   0.0000
  56 H            6.8191     9.5762     7.8957 H            1    LIG   0.0000
  57 H            6.5227     7.6760     6.4975 H            1    LIG   0.0000
  58 H            4.1457     4.7639     3.0805 H            1    LIG   0.0000
  59 H            1.1836     3.0813    -0.0353 H            1    LIG   0.0000
  60 H           -0.9224    -0.4990     0.0503 H            1    LIG   0.0000
  61 H            0.6564    -0.5792    -2.5684 H            1    LIG   0.0000
  62 H            0.6826    -2.2748    -4.2614 H            1    LIG   0.0000
  63 H            1.2607    -4.5217    -3.6915 H            1    LIG   0.0000
  64 H            1.8140    -5.0874    -1.4379 H            1    LIG   0.0000
  65 H            1.7881    -3.3978     0.2616 H            1    LIG   0.0000
@<TRIPOS>BOND
   1        1        2 1
   2        2        3 1
   3        3        4 1
   4        4        5 2
   5        4        6 1
   6        6        7 2
   7        7        8 1
   8        8        9 1
   9        9       10 1
  10       10       11 ar
  11       11       12 ar
  12       12       13 ar
  13       13       14 ar
  14       14       15 1
  15       15       16 2
  16       15       17 am
  17       17       18 1
  18       18       19 1
  19       19       20 1
  20       20       21 ar
  21       21       22 ar
  22       22       23 ar
  23       23       24 ar
  24       24       25 ar
  25       25       20 ar
  26       25       17 1
  27       14       26 ar
  28       26       10 ar
  29        7       27 1
  30       27       28 am
  31       28       29 2
  32       28       30 am
  33       30       31 1
  34       31        6 1
  35       31       32 1
  36       32       33 ar
  37       33       34 ar
  38       34       35 ar
  39       35       36 ar
  40       36       37 ar
  41       37       32 ar
  42       31       38 1
  43        1       39 1
  44        1       40 1
  45        1       41 1
  46        2       42 1
  47        2       43 1
  48        8       44 1
  49        8       45 1
  50        9       46 1
  51       11       47 1
  52       12       48 1
  53       13       49 1
  54       18       50 1
  55       18       51 1
  56       19       52 1
  57       19       53 1
  58       21       54 1
  59       22       55 1
  60       23       56 1
  61       24       57 1
  62       26       58 1
  63       27       59 1
  64       30       60 1
  65       33       61 1
  66       34       62 1
  67       35       63 1
  68       36       64 1
  69       37       65 1

@<TRIPOS>MOLECULE

  65   69
SMALL
USER_CHARGES
@<TRIPOS>ATOM
   1 C1           5.5053    -2.8494     1.1873 C.3          1    LIG   0.0000
   2 C2           5.6988    -1.3622     0.9399 C.3          1    LIG   0.0000
   3 O3           4.4533    -0.6938     1.0749 O.3          1    LIG   0.0000
   4 C4           3.7458    -0.5923    -0.0229 C.2          1    LIG   0.0000
   5 O5           4.1640    -1.0493    -1.0507 O.2          1    LIG   0.0000
   6 C6           2.4573     0.0723     0.0038 C.2          1    LIG   0.0000
   7 C7           2.4110     1.3985    -0.0229 C.2          1    LIG   0.0000
   8 C8           3.6837     2.2307    -0.0749 C.3          1    LIG   0.0000
   9 N9           3.7468     3.1039     1.1060 N.pl3        1    LIG   0.0000
  10 C10          4.8342     3.9684     1.2801 C.ar         1    LIG   0.0000
  11 C11          4.8841     4.7902     2.4015 C.ar         1    LIG   0.0000
  12 C12          5.9690     5.6452     2.5637 C.ar         1    LIG   0.0000
  13 C13          6.9933     5.6831     1.6236 C.ar         1    LIG   0.0000
  14 C14          6.9229     4.8526     0.5099 C.ar         1    LIG   0.0000
  15 C15          7.9857     4.8855    -0.4759 C.2          1    LIG   0.0000
  16 O16          8.2331     5.9054    -1.0576 O.2          1    LIG   0.0000
  17 N17          8.7234     3.7268    -0.7491 N.am         1    LIG   0.0000
  18 C18          9.7891     3.6024    -1.7418 C.3          1    LIG   0.0000
  19 C19          9.6187     2.1651    -2.1937 C.3          1    LIG   0.0000
  20 C20          9.0765     1.4889    -0.9500 C.ar         1    LIG   0.0000
  21 C21          9.0455     0.1431    -0.5994 C.ar         1    LIG   0.0000
  22 C22          8.4569    -0.2245     0.6055 C.ar         1    LIG   0.0000
  23 C23          7.9144     0.7549     1.4307 C.ar         1    LIG   0.0000
  24 C24          7.9628     2.0920     1.0489 C.ar         1    LIG   0.0000
  25 C25          8.5476     2.4786    -0.1537 C.ar         1    LIG   0.0000
  26 C26          5.8471     3.9902     0.3273 C.ar         1    LIG   0.0000
  27 N27          1.1894     2.0815    -0.0175 N.am         1    LIG   0.0000
  28 C28         -0.0256     1.3841     0.0124 C.2          1    LIG   0.0000
  29 O29         -1.0884     1.9815     0.0178 O.2          1    LIG   0.0000
  30 N30         -0.0457    -0.0182     0.0401 N.am         1    LIG   0.0000
  31 C31          1.2053    -0.7903     0.0544 C.3          1    LIG   0.0000
  32 C32          1.2206    -1.8604    -1.0253 C.ar         1    LIG   0.0000
  33 C33          1.7546    -3.1138    -0.7444 C.ar         1    LIG   0.0000
  34 C34          1.7652    -4.0867    -1.7383 C.ar         1    LIG   0.0000
  35 C35          1.2452    -3.8018    -2.9973 C.ar         1    LIG   0.0000
  36 C36          0.7130    -2.5457    -3.2693 C.ar         1    LIG   0.0000
  37 C37          0.6990    -1.5666    -2.2809 C.ar         1    LIG   0.0000
  38 H            1.2297    -1.2724     0.9302 H            1    LIG   0.0000
  39 H            6.3825    -3.3200     1.0922 H            1    LIG   0.0000
  40 H            5.1500    -2.9900     2.1114 H            1    LIG   0.0000
  41 H            4.8561    -3.2164     0.5211 H            1    LIG   0.0000
  42 H            6.3481    -0.9951     1.6060 H            1    LIG   0.0000
  43 H            6.0541    -1.2215     0.0158 H            1    LIG   0.0000
  44 H            4.4786     1.6240    -0.0837 H            1    LIG   0.0000
  45 H            3.6824     2.7904    -0.9036 H            1    LIG   0.0000
  46 H            3.0131     3.0803     1.7851 H            1    LIG   0.0000
  47 H            4.1507     4.7665     3.0809 H            1    LIG   0.0000
  48 H            6.0131     6.2402     3.3662 H            1    LIG   0.0000
  49 H            7.7708     6.2998     1.7468 H            1    LIG   0.0000
  50 H           10.6889     3.7517    -1.3318 H            1    LIG   0.0000
  51 H            9.6580     4.2412    -2.4999 H            1    LIG   0.0000
  52 H            8.9700     2.0996    -2.9520 H            1    LIG   0.0000
  53 H           10.4939     1.7670    -2.4686 H            1    LIG   0.0000
  54 H            9.4402    -0.5488    -1.2040 H            1    LIG   0.0000
  55 H            8.4238    -1.1864     0.8769 H            1    LIG   0.0000
  56 H            7.4895     0.4981     2.2988 H            1    LIG   0.0000
  57 H            7.5700     2.7883     1.6497 H            1    LIG   0.0000
  58 H            5.8027     3.3956    -0.4755 H            1    LIG   0.0000
  59 H            1.1836     3.0813    -0.0353 H            1    LIG   0.0000
  60 H           -0.9224    -0.4990     0.0503 H            1    LIG   0.0000
  61 H            2.1267    -3.3131     0.1621 H            1    LIG   0.0000
  62 H            2.1467    -4.9913    -1.5482 H            1    LIG   0.0000
  63 H            1.2543    -4.5033    -3.7098 H            1    LIG   0.0000
  64 H            0.3402    -2.3464    -4.1755 H            1    LIG   0.0000
  65 H            0.3183    -0.6617    -2.4711 H            1    LIG   0.0000
@<TRIPOS>BOND
   1        1        2 1
   2        2        3 1
   3        3        4 1
   4        4        5 2
   5        4        6 1
   6        6        7 2
   7        7        8 1
   8        8        9 1
   9        9       10 1
  10       10       11 ar
  11       11       12 ar
  12       12       13 ar
  13       13       14 ar
  14       14       15 1
  15       15       16 2
  16       15       17 am
  17       17       18 1
  18       18       19 1
  19       19       20 1
  20       20       21 ar
  21       21       22 ar
  22       22       23 ar
  23       23       24 ar
  24       24       25 ar
  25       25       20 ar
  26       25       17 1
  27       14       26 ar
  28       26       10 ar
  29        7       27 1
  30       27       28 am
  31       28       29 2
  32       28       30 am
  33       30       31 1
  34       31        6 1
  35       31       32 1
  36       32       33 ar
  37       33       34 ar
  38       34       35 ar
  39       35       36 ar
  40       36       37 ar
  41       37       32 ar
  42       31       38 1
  43        1       39 1
  44        1       40 1
  45        1       41 1
  46        2       42 1
  47        2       43 1
  48        8       44 1
  49        8       45 1
  50        9       46 1
  51       11       47 1
  52       12       48 1
  53       13       49 1
  54       18       50 1
  55       18       51 1
  56       19       52 1
  57       19       53 1
  58       21       54 1
  59       22       55 1
  60       23       56 1
  61       24       57 1
  62       26       58 1
  63       27       59 1
  64       30       60 1
  65       33       61 1
  66       34       62 1
  67       35       63 1
  68       36       64 1
  69       37       65 1

@<TRIPOS>MOLECULE

  65   69
SMALL
USER_CHARGES
@<TRIPOS>ATOM
   1 C1           6.4012    -1.4020     2.2873 C.3          1    LIG   0.0000
   2 C2           5.6988    -1.3622     0.9399 C.3          1    LIG   0.0000
   3 O3           4.4533    -0.6938     1.0749 O.3          1    LIG   0.0000
   4 C4           3.7458    -0.5923    -0.0229 C.2          1    LIG   0.0000
   5 O5           4.1640    -1.0493    -1.0507 O.2          1    LIG   0.0000
   6 C6           2.4573     0.0723     0.0038 C.2          1    LIG   0.0000
   7 C7           2.4110     1.3985    -0.0229 C.2          1    LIG   0.0000
   8 C8           3.6837     2.2307    -0.0749 C.3          1    LIG   0.0000
   9 N9           3.7468     3.1039     1.1060 N.pl3        1    LIG   0.0000
  10 C10          4.8342     3.9684     1.2801 C.ar         1    LIG   0.0000
  11 C11          4.8841     4.7902     2.4015 C.ar         1    LIG   0.0000
  12 C12          5.9690     5.6452     2.5637 C.ar         1    LIG   0.0000
  13 C13          6.9933     5.6831     1.6236 C.ar         1    LIG   0.0000
  14 C14          6.9229     4.8526     0.5099 C.ar         1    LIG   0.0000
  15 C15          7.9857     4.8855    -0.4759 C.2          1    LIG   0.0000
  16 O16          8.2331     5.9054    -1.0576 O.2          1    LIG   0.0000
  17 N17          8.7234     3.7268    -0.7491 N.am         1    LIG   0.0000
  18 C18          8.5617     2.4316    -0.0913 C.3          1    LIG   0.0000
  19 C19          9.9832     1.9040    -0.1027 C.3          1    LIG   0.0000
  20 C20         10.5582     2.5286    -1.3586 C.ar         1    LIG   0.0000
  21 C21         11.6729     2.1724    -2.1107 C.ar         1    LIG   0.0000
  22 C22         12.0076     2.9388    -3.2215 C.ar         1    LIG   0.0000
  23 C23         11.2257     4.0394    -3.5562 C.ar         1    LIG   0.0000
  24 C24         10.1173     4.3672    -2.7818 C.ar         1    LIG   0.0000
  25 C25          9.7672     3.6118    -1.6661 C.ar         1    LIG   0.0000
  26 C26          5.8471     3.9902     0.3273 C.ar         1    LIG   0.0000
  27 N27          1.1894     2.0815    -0.0175 N.am         1    LIG   0.0000
  28 C28         -0.0256     1.3841     0.0124 C.2          1    LIG   0.0000
  29 O29         -1.0884     1.9815     0.0178 O.2          1    LIG   0.0000
  30 N30         -0.0457    -0.0182     0.0401 N.am         1    LIG   0.0000
  31 C31          1.2053    -0.7903     0.0544 C.3          1    LIG   0.0000
  32 C32          1.2206    -1.8604    -1.0253 C.ar         1    LIG   0.0000
  33 C33          1.7546    -3.1138    -0.7444 C.ar         1    LIG   0.0000
  34 C34          1.7652    -4.0867    -1.7383 C.ar         1    LIG   0.0000
  35 C35          1.2452    -3.8018    -2.9973 C.ar         1    LIG   0.0000
  36 C36          0.7130    -2.5457    -3.2693 C.ar         1    LIG   0.0000
  37 C37          0.6990    -1.5666    -2.2809 C.ar         1    LIG   0.0000
  38 H            1.2297    -1.2724     0.9302 H            1    LIG   0.0000
  39 H            7.2784    -1.8727     2.1922 H            1    LIG   0.0000
  40 H            6.5572    -0.4683     2.6096 H            1    LIG   0.0000
  41 H            5.8302    -1.8912     2.9465 H            1    LIG   0.0000
  42 H            6.2699    -0.8730     0.2806 H            1    LIG   0.0000
  43 H            5.5429    -2.2959     0.6175 H            1    LIG   0.0000
  44 H            4.4786     1.6240    -0.0837 H            1    LIG   0.0000
  45 H            3.6824     2.7904    -0.9036 H            1    LIG   0.0000
  46 H            3.0131     3.0803     1.7851 H            1    LIG   0.0000
  47 H            4.1507     4.7665     3.0809 H            1    LIG   0.0000
  48 H            6.0131     6.2402     3.3662 H            1    LIG   0.0000
  49 H            7.7708     6.2998     1.7468 H            1    LIG   0.0000
  50 H            7.9468     1.8348    -0.6068 H            1    LIG   0.0000
  51 H            8.2190     2.5368     0.8423 H            1    LIG   0.0000
  52 H           10.4848     2.2006     0.7100 H            1    LIG   0.0000
  53 H            9.9972     0.9056    -0.1572 H            1    LIG   0.0000
  54 H           12.2246     1.3780    -1.8565 H            1    LIG   0.0000
  55 H           12.8050     2.7005    -3.7759 H            1    LIG   0.0000
  56 H           11.4603     4.5952    -4.3537 H            1    LIG   0.0000
  57 H            9.5617     5.1603    -3.0313 H            1    LIG   0.0000
  58 H            5.8027     3.3956    -0.4755 H            1    LIG   0.0000
  59 H            1.1836     3.0813    -0.0353 H            1    LIG   0.0000
  60 H           -0.9224    -0.4990     0.0503 H            1    LIG   0.0000
  61 H            2.1267    -3.3131     0.1621 H            1    LIG   0.0000
  62 H            2.1467    -4.9913    -1.5482 H            1    LIG   0.0000
  63 H            1.2543    -4.5033    -3.7098 H            1    LIG   0.0000
  64 H            0.3402    -2.3464    -4.1755 H            1    LIG   0.0000
  65 H            0.3183    -0.6617    -2.4711 H            1    LIG   0.0000
@<TRIPOS>BOND
   1        1        2 1
   2        2        3 1
   3        3        4 1
   4        4        5 2
   5        4        6 1
   6        6        7 2
   7        7        8 1
   8        8        9 1
   9        9       10 1
  10       10       11 ar
  11       11       12 ar
  12       12       13 ar
  13       13       14 ar
  14       14       15 1
  15       15       16 2
  16       15       17 am
  17       17       18 1
  18       18       19 1
  19       19       20 1
  20       20       21 ar
  21       21       22 ar
  22       22       23 ar
  23       23       24 ar
  24       24       25 ar
  25       25       20 ar
  26       25       17 1
  27       14       26 ar
  28       26       10 ar
  29        7       27 1
  30       27       28 am
  31       28       29 2
  32       28       30 am
  33       30       31 1
  34       31        6 1
  35       31       32 1
  36       32       33 ar
  37       33       34 ar
  38       34       35 ar
  39       35       36 ar
  40       36       37 ar
  41       37       32 ar
  42       31       38 1
  43        1       39 1
  44        1       40 1
  45        1       41 1
  46        2       42 1
  47        2       43 1
  48        8       44 1
  49        8       45 1
  50        9       46 1
  51       11       47 1
  52       12       48 1
  53       13       49 1
  54       18       50 1
  55       18       51 1
  56       19       52 1
  57       19       53 1
  58       21       54 1
  59       22       55 1
  60       23       56 1
  61       24       57 1
  62       26       58 1
  63       27       59 1
  64       30       60 1
  65       33       61 1
  66       34       62 1
  67       35       63 1
  68       36       64 1
  69       37       65 1

@<TRIPOS>MOLECULE

  65   69
SMALL
USER_CHARGES
@<TRIPOS>ATOM
   1 C1           6.4012    -1.4020     2.2873 C.3          1    LIG   0.0000
   2 C2           5.6988    -1.3622     0.9399 C.3          1    LIG   0.0000
   3 O3           4.4533    -0.6938     1.0749 O.3          1    LIG   0.0000
   4 C4           3.7458    -0.5923    -0.0229 C.2          1    LIG   0.0000
   5 O5           4.1640    -1.0493    -1.0507 O.2          1    LIG   0.0000
   6 C6           2.4573     0.0723     0.0038 C.2          1    LIG   0.0000
   7 C7           2.4110     1.3985    -0.0229 C.2          1    LIG   0.0000
   8 C8           3.6837     2.2307    -0.0749 C.3          1    LIG   0.0000
   9 N9           3.7468     3.1039     1.1060 N.pl3        1    LIG   0.0000
  10 C10          4.8342     3.9684     1.2801 C.ar         1    LIG   0.0000
  11 C11          4.8841     4.7902     2.4015 C.ar         1    LIG   0.0000
  12 C12          5.9690     5.6452     2.5637 C.ar         1    LIG   0.0000
  13 C13          6.9933     5.6831     1.6236 C.ar         1    LIG   0.0000
  14 C14          6.9229     4.8526     0.5099 C.ar         1    LIG   0.0000
  15 C15          7.9857     4.8855    -0.4759 C.2          1    LIG   0.0000
  16 O16          9.1108     4.6195    -0.1543 O.2          1    LIG   0.0000
  17 N17          7.6998     5.2269    -1.8002 N.am         1    LIG   0.0000
  18 C18          8.6687     5.2604    -2.8933 C.3          1    LIG   0.0000
  19 C19          7.7911     4.8635    -4.0638 C.3          1    LIG   0.0000
  20 C20          6.4214     5.3817    -3.6708 C.ar         1    LIG   0.0000
  21 C21          5.3173     5.6372    -4.4778 C.ar         1    LIG   0.0000
  22 C22          4.1473     6.0763    -3.8672 C.ar         1    LIG   0.0000
  23 C23          4.1188     6.2513    -2.4870 C.ar         1    LIG   0.0000
  24 C24          5.2556     5.9947    -1.7247 C.ar         1    LIG   0.0000
  25 C25          6.4430     5.5559    -2.3041 C.ar         1    LIG   0.0000
  26 C26          5.8471     3.9902     0.3273 C.ar         1    LIG   0.0000
  27 N27          1.1894     2.0815    -0.0175 N.am         1    LIG   0.0000
  28 C28         -0.0256     1.3841     0.0124 C.2          1    LIG   0.0000
  29 O29         -1.0884     1.9815     0.0178 O.2          1    LIG   0.0000
  30 N30         -0.0457    -0.0182     0.0401 N.am         1    LIG   0.0000
  31 C31          1.2053    -0.7903     0.0544 C.3          1    LIG   0.0000
  32 C32          1.2206    -1.8604    -1.0253 C.ar         1    LIG   0.0000
  33 C33          1.7546    -3.1138    -0.7444 C.ar         1    LIG   0.0000
  34 C34          1.7652    -4.0867    -1.7383 C.ar         1    LIG   0.0000
  35 C35          1.2452    -3.8018    -2.9973 C.ar         1    LIG   0.0000
  36 C36          0.7130    -2.5457    -3.2693 C.ar         1    LIG   0.0000
  37 C37          0.6990    -1.5666    -2.2809 C.ar         1    LIG   0.0000
  38 H            1.2297    -1.2724     0.9302 H            1    LIG   0.0000
  39 H            7.2784    -1.8727     2.1922 H            1    LIG   0.0000
  40 H            6.5572    -0.4683     2.6096 H            1    LIG   0.0000
  41 H            5.8302    -1.8912     2.9465 H            1    LIG   0.0000
  42 H            6.2699    -0.8730     0.2806 H            1    LIG   0.0000
  43 H            5.5429    -2.2959     0.6175 H            1    LIG   0.0000
  44 H            4.4786     1.6240    -0.0837 H            1    LIG   0.0000
  45 H            3.6824     2.7904    -0.9036 H            1    LIG   0.0000
  46 H            3.0131     3.0803     1.7851 H            1    LIG   0.0000
  47 H            4.1507     4.7665     3.0809 H            1    LIG   0.0000
  48 H            6.0131     6.2402     3.3662 H            1    LIG   0.0000
  49 H            7.7708     6.2998     1.7468 H            1    LIG   0.0000
  50 H            9.4089     4.6036    -2.7491 H            1    LIG   0.0000
  51 H            9.0538     6.1751    -3.0157 H            1    LIG   0.0000
  52 H            8.1070     5.2938    -4.9094 H            1    LIG   0.0000
  53 H            7.7778     3.8703    -4.1799 H            1    LIG   0.0000
  54 H            5.3636     5.5090    -5.4685 H            1    LIG   0.0000
  55 H            3.3327     6.2647    -4.4159 H            1    LIG   0.0000
  56 H            3.2795     6.5624    -2.0412 H            1    LIG   0.0000
  57 H            5.2180     6.1292    -0.7345 H            1    LIG   0.0000
  58 H            5.8027     3.3956    -0.4755 H            1    LIG   0.0000
  59 H            1.1836     3.0813    -0.0353 H            1    LIG   0.0000
  60 H           -0.9224    -0.4990     0.0503 H            1    LIG   0.0000
  61 H            2.1267    -3.3131     0.1621 H            1    LIG   0.0000
  62 H            2.1467    -4.9913    -1.5482 H            1    LIG   0.0000
  63 H            1.2543    -4.5033    -3.7098 H            1    LIG   0.0000
  64 H            0.3402    -2.3464    -4.1755 H            1    LIG   0.0000
  65 H            0.3183    -0.6617    -2.4711 H            1    LIG   0.0000
@<TRIPOS>BOND
   1        1        2 1
   2        2        3 1
   3        3        4 1
   4        4        5 2
   5        4        6 1
   6        6        7 2
   7        7        8 1
   8        8        9 1
   9        9       10 1
  10       10       11 ar
  11       11       12 ar
  12       12       13 ar
  13       13       14 ar
  14       14       15 1
  15       15       16 2
  16       15       17 am
  17       17       18 1
  18       18       19 1
  19       19       20 1
  20       20       21 ar
  21       21       22 ar
  22       22       23 ar
  23       23       24 ar
  24       24       25 ar
  25       25       20 ar
  26       25       17 1
  27       14       26 ar
  28       26       10 ar
  29        7       27 1
  30       27       28 am
  31       28       29 2
  32       28       30 am
  33       30       31 1
  34       31        6 1
  35       31       32 1
  36       32       33 ar
  37       33       34 ar
  38       34       35 ar
  39       35       36 ar
  40       36       37 ar
  41       37       32 ar
  42       31       38 1
  43        1       39 1
  44        1       40 1
  45        1       41 1
  46        2       42 1
  47        2       43 1
  48        8       44 1
  49        8       45 1
  50        9       46 1
  51       11       47 1
  52       12       48 1
  53       13       49 1
  54       18       50 1
  55       18       51 1
  56       19       52 1
  57       19       53 1
  58       21       54 1
  59       22       55 1
  60       23       56 1
  61       24       57 1
  62       26       58 1
  63       27       59 1
  64       30       60 1
  65       33       61 1
  66       34       62 1
  67       35       63 1
  68       36       64 1
  69       37       65 1

@<TRIPOS>MOLECULE

  65   69
SMALL
USER_CHARGES
@<TRIPOS>ATOM
   1 C1           6.2510    -1.5025    -2.4600 C.3          1    LIG   0.0000
   2 C2           5.6351    -1.4048    -1.0738 C.3          1    LIG   0.0000
   3 O3           4.3826    -0.7411    -1.1580 O.3          1    LIG   0.0000
   4 C4           3.7458    -0.5923    -0.0229 C.2          1    LIG   0.0000
   5 O5           4.2287    -1.0060     0.9947 O.2          1    LIG   0.0000
   6 C6           2.4573     0.0723     0.0038 C.2          1    LIG   0.0000
   7 C7           2.4110     1.3985    -0.0229 C.2          1    LIG   0.0000
   8 C8           3.6837     2.2307    -0.0749 C.3          1    LIG   0.0000
   9 N9           3.7468     3.1039     1.1060 N.pl3        1    LIG   0.0000
  10 C10          4.8342     3.9684     1.2801 C.ar         1    LIG   0.0000
  11 C11          4.8841     4.7902     2.4015 C.ar         1    LIG   0.0000
  12 C12          5.9690     5.6452     2.5637 C.ar         1    LIG   0.0000
  13 C13          6.9933     5.6831     1.6236 C.ar         1    LIG   0.0000
  14 C14          6.9229     4.8526     0.5099 C.ar         1    LIG   0.0000
  15 C15          7.9857     4.8855    -0.4759 C.2          1    LIG   0.0000
  16 O16          8.2519     3.8984    -1.1043 O.2          1    LIG   0.0000
  17 N17          8.7015     6.0691    -0.6947 N.am         1    LIG   0.0000
  18 C18          8.4604     7.3518    -0.0364 C.3          1    LIG   0.0000
  19 C19          8.8281     8.3316    -1.1337 C.3          1    LIG   0.0000
  20 C20          9.8957     7.5805    -1.9043 C.ar         1    LIG   0.0000
  21 C21         10.8658     8.0481    -2.7849 C.ar         1    LIG   0.0000
  22 C22         11.7202     7.1341    -3.3914 C.ar         1    LIG   0.0000
  23 C23         11.5885     5.7790    -3.1070 C.ar         1    LIG   0.0000
  24 C24         10.6071     5.3458    -2.2211 C.ar         1    LIG   0.0000
  25 C25          9.7426     6.2462    -1.6048 C.ar         1    LIG   0.0000
  26 C26          5.8471     3.9902     0.3273 C.ar         1    LIG   0.0000
  27 N27          1.1894     2.0815    -0.0175 N.am         1    LIG   0.0000
  28 C28         -0.0256     1.3841     0.0124 C.2          1    LIG   0.0000
  29 O29         -1.0884     1.9815     0.0178 O.2          1    LIG   0.0000
  30 N30         -0.0457    -0.0182     0.0401 N.am         1    LIG   0.0000
  31 C31          1.2053    -0.7903     0.0544 C.3          1    LIG   0.0000
  32 C32          1.2206    -1.8604    -1.0253 C.ar         1    LIG   0.0000
  33 C33          0.8974    -1.5212    -2.3350 C.ar         1    LIG   0.0000
  34 C34          0.9133    -2.5067    -3.3164 C.ar         1    LIG   0.0000
  35 C35          1.2501    -3.8153    -2.9838 C.ar         1    LIG   0.0000
  36 C36          1.5722    -4.1455    -1.6714 C.ar         1    LIG   0.0000
  37 C37          1.5582    -3.1659    -0.6836 C.ar         1    LIG   0.0000
  38 H            1.2297    -1.2724     0.9302 H            1    LIG   0.0000
  39 H            7.1331    -1.9699    -2.4007 H            1    LIG   0.0000
  40 H            5.6401    -2.0184    -3.0605 H            1    LIG   0.0000
  41 H            6.3850    -0.5835    -2.8307 H            1    LIG   0.0000
  42 H            5.5011    -2.3238    -0.7030 H            1    LIG   0.0000
  43 H            6.2460    -0.8889    -0.4732 H            1    LIG   0.0000
  44 H            4.4786     1.6240    -0.0837 H            1    LIG   0.0000
  45 H            3.6824     2.7904    -0.9036 H            1    LIG   0.0000
  46 H            3.0131     3.0803     1.7851 H            1    LIG   0.0000
  47 H            4.1507     4.7665     3.0809 H            1    LIG   0.0000
  48 H            6.0131     6.2402     3.3662 H            1    LIG   0.0000
  49 H            7.7708     6.2998     1.7468 H            1    LIG   0.0000
  50 H            9.0460     7.4659     0.7660 H            1    LIG   0.0000
  51 H            7.5024     7.4490     0.2335 H            1    LIG   0.0000
  52 H            8.0400     8.5356    -1.7144 H            1    LIG   0.0000
  53 H            9.1898     9.1821    -0.7517 H            1    LIG   0.0000
  54 H           10.9473     9.0258    -2.9786 H            1    LIG   0.0000
  55 H           12.4245     7.4489    -4.0277 H            1    LIG   0.0000
  56 H           12.1995     5.1159    -3.5394 H            1    LIG   0.0000
  57 H           10.5211     4.3693    -2.0234 H            1    LIG   0.0000
  58 H            5.8027     3.3956    -0.4755 H            1    LIG   0.0000
  59 H            1.1836     3.0813    -0.0353 H            1    LIG   0.0000
  60 H           -0.9224    -0.4990     0.0503 H            1    LIG   0.0000
  61 H            0.6564    -0.5792    -2.5684 H            1    LIG   0.0000
  62 H            0.6826    -2.2748    -4.2614 H            1    LIG   0.0000
  63 H            1.2607    -4.5217    -3.6915 H            1    LIG   0.0000
  64 H            1.8140    -5.0874    -1.4379 H            1    LIG   0.0000
  65 H            1.7881    -3.3978     0.2616 H            1    LIG   0.0000
@<TRIPOS>BOND
   1        1        2 1
   2        2        3 1
   3        3        4 1
   4        4        5 2
   5        4        6 1
   6        6        7 2
   7        7        8 1
   8        8        9 1
   9        9       10 1
  10       10       11 ar
  11       11       12 ar
  12       12       13 ar
  13       13       14 ar
  14       14       15 1
  15       15       16 2
  16       15       17 am
  17       17       18 1
  18       18       19 1
  19       19       20 1
  20       20       21 ar
  21       21       22 ar
  22       22       23 ar
  23       23       24 ar
  24       24       25 ar
  25       25       20 ar
  26       25       17 1
  27       14       26 ar
  28       26       10 ar
  29        7       27 1
  30       27       28 am
  31       28       29 2
  32       28       30 am
  33       30       31 1
  34       31        6 1
  35       31       32 1
  36       32       33 ar
  37       33       34 ar
  38       34       35 ar
  39       35       36 ar
  40       36       37 ar
  41       37       32 ar
  42       31       38 1
  43        1       39 1
  44        1       40 1
  45        1       41 1
  46        2       42 1
  47        2       43 1
  48        8       44 1
  49        8       45 1
  50        9       46 1
  51       11       47 1
  52       12       48 1
  53       13       49 1
  54       18       50 1
  55       18       51 1
  56       19       52 1
  57       19       53 1
  58       21       54 1
  59       22       55 1
  60       23       56 1
  61       24       57 1
  62       26       58 1
  63       27       59 1
  64       30       60 1
  65       33       61 1
  66       34       62 1
  67       35       63 1
  68       36       64 1
  69       37       65 1

@<TRIPOS>MOLECULE

  65   69
SMALL
USER_CHARGES
@<TRIPOS>ATOM
   1 C1           6.2510    -1.5025    -2.4600 C.3          1    LIG   0.0000
   2 C2           5.6351    -1.4048    -1.0738 C.3          1    LIG   0.0000
   3 O3           4.3826    -0.7411    -1.1580 O.3          1    LIG   0.0000
   4 C4           3.7458    -0.5923    -0.0229 C.2          1    LIG   0.0000
   5 O5           4.2287    -1.0060     0.9947 O.2          1    LIG   0.0000
   6 C6           2.4573     0.0723     0.0038 C.2          1    LIG   0.0000
   7 C7           2.4110     1.3985    -0.0229 C.2          1    LIG   0.0000
   8 C8           3.6837     2.2307    -0.0749 C.3          1    LIG   0.0000
   9 N9           3.7468     3.1039     1.1060 N.pl3        1    LIG   0.0000
  10 C10          4.3680     2.6536     2.2771 C.ar         1    LIG   0.0000
  11 C11          4.9227     1.3783     2.3123 C.ar         1    LIG   0.0000
  12 C12          5.5370     0.9417     3.4812 C.ar         1    LIG   0.0000
  13 C13          5.6007     1.7624     4.6022 C.ar         1    LIG   0.0000
  14 C14          5.0396     3.0339     4.5447 C.ar         1    LIG   0.0000
  15 C15          5.1006     3.8966     5.7086 C.2          1    LIG   0.0000
  16 O16          4.5946     3.5496     6.7398 O.2          1    LIG   0.0000
  17 N17          5.7500     5.1348     5.6291 N.am         1    LIG   0.0000
  18 C18          5.8526     6.1204     6.7037 C.3          1    LIG   0.0000
  19 C19          5.8364     7.4222     5.9262 C.3          1    LIG   0.0000
  20 C20          6.4867     7.0322     4.6136 C.ar         1    LIG   0.0000
  21 C21          7.0781     7.8224     3.6335 C.ar         1    LIG   0.0000
  22 C22          7.5838     7.2113     2.4915 C.ar         1    LIG   0.0000
  23 C23          7.4886     5.8306     2.3532 C.ar         1    LIG   0.0000
  24 C24          6.8907     5.0704     3.3533 C.ar         1    LIG   0.0000
  25 C25          6.3786     5.6648     4.5032 C.ar         1    LIG   0.0000
  26 C26          4.4200     3.4909     3.3864 C.ar         1    LIG   0.0000
  27 N27          1.1894     2.0815    -0.0175 N.am         1    LIG   0.0000
  28 C28         -0.0256     1.3841     0.0124 C.2          1    LIG   0.0000
  29 O29         -1.0884     1.9815     0.0178 O.2          1    LIG   0.0000
  30 N30         -0.0457    -0.0182     0.0401 N.am         1    LIG   0.0000
  31 C31          1.2053    -0.7903     0.0544 C.3          1    LIG   0.0000
  32 C32          1.2206    -1.8604    -1.0253 C.ar         1    LIG   0.0000
  33 C33          1.7546    -3.1138    -0.7444 C.ar         1    LIG   0.0000
  34 C34          1.7652    -4.0867    -1.7383 C.ar         1    LIG   0.0000
  35 C35          1.2452    -3.8018    -2.9973 C.ar         1    LIG   0.0000
  36 C36          0.7130    -2.5457    -3.2693 C.ar         1    LIG   0.0000
  37 C37          0.6990    -1.5666    -2.2809 C.ar         1    LIG   0.0000
  38 H            1.2297    -1.2724     0.9302 H            1    LIG   0.0000
  39 H            7.1331    -1.9699    -2.4007 H            1    LIG   0.0000
  40 H            5.6401    -2.0184    -3.0605 H            1    LIG   0.0000
  41 H            6.3850    -0.5835    -2.8307 H            1    LIG   0.0000
  42 H            5.5011    -2.3238    -0.7030 H            1    LIG   0.0000
  43 H            6.2460    -0.8889    -0.4732 H            1    LIG   0.0000
  44 H            4.4786     1.6240    -0.0837 H            1    LIG   0.0000
  45 H            3.6824     2.7904    -0.9036 H            1    LIG   0.0000
  46 H            3.3460     4.0194     1.0729 H            1    LIG   0.0000
  47 H            4.8804     0.7843     1.5090 H            1    LIG   0.0000
  48 H            5.9378     0.0262     3.5161 H            1    LIG   0.0000
  49 H            6.0445     1.4424     5.4393 H            1    LIG   0.0000
  50 H            6.7038     6.0129     7.2174 H            1    LIG   0.0000
  51 H            5.0753     6.0597     7.3299 H            1    LIG   0.0000
  52 H            4.9009     7.7456     5.7835 H            1    LIG   0.0000
  53 H            6.3657     8.1292     6.3952 H            1    LIG   0.0000
  54 H            7.1387     8.8140     3.7484 H            1    LIG   0.0000
  55 H            8.0129     7.7607     1.7745 H            1    LIG   0.0000
  56 H            7.8501     5.3842     1.5346 H            1    LIG   0.0000
  57 H            6.8276     4.0784     3.2441 H            1    LIG   0.0000
  58 H            4.0187     4.4062     3.3517 H            1    LIG   0.0000
  59 H            1.1836     3.0813    -0.0353 H            1    LIG   0.0000
  60 H           -0.9224    -0.4990     0.0503 H            1    LIG   0.0000
  61 H            2.1267    -3.3131     0.1621 H            1    LIG   0.0000
  62 H            2.1467    -4.9913    -1.5482 H            1    LIG   0.0000
  63 H            1.2543    -4.5033    -3.7098 H            1    LIG   0.0000
  64 H            0.3402    -2.3464    -4.1755 H            1    LIG   0.0000
  65 H            0.3183    -0.6617    -2.4711 H            1    LIG   0.0000
@<TRIPOS>BOND
   1        1        2 1
   2        2        3 1
   3        3        4 1
   4        4        5 2
   5        4        6 1
   6        6        7 2
   7        7        8 1
   8        8        9 1
   9        9       10 1
  10       10       11 ar
  11       11       12 ar
  12       12       13 ar
  13       13       14 ar
  14       14       15 1
  15       15       16 2
  16       15       17 am
  17       17       18 1
  18       18       19 1
  19       19       20 1
  20       20       21 ar
  21       21       22 ar
  22       22       23 ar
  23       23       24 ar
  24       24       25 ar
  25       25       20 ar
  26       25       17 1
  27       14       26 ar
  28       26       10 ar
  29        7       27 1
  30       27       28 am
  31       28       29 2
  32       28       30 am
  33       30       31 1
  34       31        6 1
  35       31       32 1
  36       32       33 ar
  37       33       34 ar
  38       34       35 ar
  39       35       36 ar
  40       36       37 ar
  41       37       32 ar
  42       31       38 1
  43        1       39 1
  44        1       40 1
  45        1       41 1
  46        2       42 1
  47        2       43 1
  48        8       44 1
  49        8       45 1
  50        9       46 1
  51       11       47 1
  52       12       48 1
  53       13       49 1
  54       18       50 1
  55       18       51 1
  56       19       52 1
  57       19       53 1
  58       21       54 1
  59       22       55 1
  60       23       56 1
  61       24       57 1
  62       26       58 1
  63       27       59 1
  64       30       60 1
  65       33       61 1
  66       34       62 1
  67       35       63 1
  68       36       64 1
  69       37       65 1

@<TRIPOS>MOLECULE

  65   69
SMALL
USER_CHARGES
@<TRIPOS>ATOM
   1 C1           6.2510    -1.5025    -2.4600 C.3          1    LIG   0.0000
   2 C2           5.6351    -1.4048    -1.0738 C.3          1    LIG   0.0000
   3 O3           4.3826    -0.7411    -1.1580 O.3          1    LIG   0.0000
   4 C4           3.7458    -0.5923    -0.0229 C.2          1    LIG   0.0000
   5 O5           4.2287    -1.0060     0.9947 O.2          1    LIG   0.0000
   6 C6           2.4573     0.0723     0.0038 C.2          1    LIG   0.0000
   7 C7           2.4110     1.3985    -0.0229 C.2          1    LIG   0.0000
   8 C8           3.6837     2.2307    -0.0749 C.3          1    LIG   0.0000
   9 N9           3.7468     3.1039     1.1060 N.pl3        1    LIG   0.0000
  10 C10          4.3680     2.6536     2.2771 C.ar         1    LIG   0.0000
  11 C11          4.9227     1.3783     2.3123 C.ar         1    LIG   0.0000
  12 C12          5.5370     0.9417     3.4812 C.ar         1    LIG   0.0000
  13 C13          5.6007     1.7624     4.6022 C.ar         1    LIG   0.0000
  14 C14          5.0396     3.0339     4.5447 C.ar         1    LIG   0.0000
  15 C15          5.1006     3.8966     5.7086 C.2          1    LIG   0.0000
  16 O16          6.1641     4.2163     6.1634 O.2          1    LIG   0.0000
  17 N17          3.9184     4.3567     6.3019 N.am         1    LIG   0.0000
  18 C18          2.5608     4.0843     5.8334 C.3          1    LIG   0.0000
  19 C19          1.8438     5.3648     6.2148 C.3          1    LIG   0.0000
  20 C20          2.6009     5.8133     7.4491 C.ar         1    LIG   0.0000
  21 C21          2.2328     6.6978     8.4577 C.ar         1    LIG   0.0000
  22 C22          3.1356     6.9643     9.4810 C.ar         1    LIG   0.0000
  23 C23          4.3809     6.3448     9.4755 C.ar         1    LIG   0.0000
  24 C24          4.7164     5.4653     8.4510 C.ar         1    LIG   0.0000
  25 C25          3.8256     5.1867     7.4182 C.ar         1    LIG   0.0000
  26 C26          4.4200     3.4909     3.3864 C.ar         1    LIG   0.0000
  27 N27          1.1894     2.0815    -0.0175 N.am         1    LIG   0.0000
  28 C28         -0.0256     1.3841     0.0124 C.2          1    LIG   0.0000
  29 O29         -1.0884     1.9815     0.0178 O.2          1    LIG   0.0000
  30 N30         -0.0457    -0.0182     0.0401 N.am         1    LIG   0.0000
  31 C31          1.2053    -0.7903     0.0544 C.3          1    LIG   0.0000
  32 C32          1.2206    -1.8604    -1.0253 C.ar         1    LIG   0.0000
  33 C33          1.7546    -3.1138    -0.7444 C.ar         1    LIG   0.0000
  34 C34          1.7652    -4.0867    -1.7383 C.ar         1    LIG   0.0000
  35 C35          1.2452    -3.8018    -2.9973 C.ar         1    LIG   0.0000
  36 C36          0.7130    -2.5457    -3.2693 C.ar         1    LIG   0.0000
  37 C37          0.6990    -1.5666    -2.2809 C.ar         1    LIG   0.0000
  38 H            1.2297    -1.2724     0.9302 H            1    LIG   0.0000
  39 H            7.1331    -1.9699    -2.4007 H            1    LIG   0.0000
  40 H            5.6401    -2.0184    -3.0605 H            1    LIG   0.0000
  41 H            6.3850    -0.5835    -2.8307 H            1    LIG   0.0000
  42 H            5.5011    -2.3238    -0.7030 H            1    LIG   0.0000
  43 H            6.2460    -0.8889    -0.4732 H            1    LIG   0.0000
  44 H            4.4786     1.6240    -0.0837 H            1    LIG   0.0000
  45 H            3.6824     2.7904    -0.9036 H            1    LIG   0.0000
  46 H            3.3460     4.0194     1.0729 H            1    LIG   0.0000
  47 H            4.8804     0.7843     1.5090 H            1    LIG   0.0000
  48 H            5.9378     0.0262     3.5161 H            1    LIG   0.0000
  49 H            6.0445     1.4424     5.4393 H            1    LIG   0.0000
  50 H            2.1661     3.2924     6.2994 H            1    LIG   0.0000
  51 H            2.5391     3.9344     4.8450 H            1    LIG   0.0000
  52 H            1.9079     6.0454     5.4849 H            1    LIG   0.0000
  53 H            0.8817     5.1908     6.4248 H            1    LIG   0.0000
  54 H            1.3334     7.1349     8.4469 H            1    LIG   0.0000
  55 H            2.8913     7.5970    10.2158 H            1    LIG   0.0000
  56 H            5.0353     6.5316    10.2083 H            1    LIG   0.0000
  57 H            5.6142     5.0250     8.4567 H            1    LIG   0.0000
  58 H            4.0187     4.4062     3.3517 H            1    LIG   0.0000
  59 H            1.1836     3.0813    -0.0353 H            1    LIG   0.0000
  60 H           -0.9224    -0.4990     0.0503 H            1    LIG   0.0000
  61 H            2.1267    -3.3131     0.1621 H            1    LIG   0.0000
  62 H            2.1467    -4.9913    -1.5482 H            1    LIG   0.0000
  63 H            1.2543    -4.5033    -3.7098 H            1    LIG   0.0000
  64 H            0.3402    -2.3464    -4.1755 H            1    LIG   0.0000
  65 H            0.3183    -0.6617    -2.4711 H            1    LIG   0.0000
@<TRIPOS>BOND
   1        1        2 1
   2        2        3 1
   3        3        4 1
   4        4        5 2
   5        4        6 1
   6        6        7 2
   7        7        8 1
   8        8        9 1
   9        9       10 1
  10       10       11 ar
  11       11       12 ar
  12       12       13 ar
  13       13       14 ar
  14       14       15 1
  15       15       16 2
  16       15       17 am
  17       17       18 1
  18       18       19 1
  19       19       20 1
  20       20       21 ar
  21       21       22 ar
  22       22       23 ar
  23       23       24 ar
  24       24       25 ar
  25       25       20 ar
  26       25       17 1
  27       14       26 ar
  28       26       10 ar
  29        7       27 1
  30       27       28 am
  31       28       29 2
  32       28       30 am
  33       30       31 1
  34       31        6 1
  35       31       32 1
  36       32       33 ar
  37       33       34 ar
  38       34       35 ar
  39       35       36 ar
  40       36       37 ar
  41       37       32 ar
  42       31       38 1
  43        1       39 1
  44        1       40 1
  45        1       41 1
  46        2       42 1
  47        2       43 1
  48        8       44 1
  49        8       45 1
  50        9       46 1
  51       11       47 1
  52       12       48 1
  53       13       49 1
  54       18       50 1
  55       18       51 1
  56       19       52 1
  57       19       53 1
  58       21       54 1
  59       22       55 1
  60       23       56 1
  61       24       57 1
  62       26       58 1
  63       27       59 1
  64       30       60 1
  65       33       61 1
  66       34       62 1
  67       35       63 1
  68       36       64 1
  69       37       65 1

@<TRIPOS>MOLECULE

  65   69
SMALL
USER_CHARGES
@<TRIPOS>ATOM
   1 C1           6.2510    -1.5025    -2.4600 C.3          1    LIG   0.0000
   2 C2           5.6351    -1.4048    -1.0738 C.3          1    LIG   0.0000
   3 O3           4.3826    -0.7411    -1.1580 O.3          1    LIG   0.0000
   4 C4           3.7458    -0.5923    -0.0229 C.2          1    LIG   0.0000
   5 O5           4.2287    -1.0060     0.9947 O.2          1    LIG   0.0000
   6 C6           2.4573     0.0723     0.0038 C.2          1    LIG   0.0000
   7 C7           2.4110     1.3985    -0.0229 C.2          1    LIG   0.0000
   8 C8           3.6837     2.2307    -0.0749 C.3          1    LIG   0.0000
   9 N9           3.7468     3.1039     1.1060 N.pl3        1    LIG   0.0000
  10 C10          4.3680     2.6536     2.2771 C.ar         1    LIG   0.0000
  11 C11          4.9227     1.3783     2.3123 C.ar         1    LIG   0.0000
  12 C12          5.5370     0.9417     3.4812 C.ar         1    LIG   0.0000
  13 C13          5.6007     1.7624     4.6022 C.ar         1    LIG   0.0000
  14 C14          5.0396     3.0339     4.5447 C.ar         1    LIG   0.0000
  15 C15          5.1006     3.8966     5.7086 C.2          1    LIG   0.0000
  16 O16          6.1641     4.2163     6.1634 O.2          1    LIG   0.0000
  17 N17          3.9212     4.3556     6.3005 N.am         1    LIG   0.0000
  18 C18          3.8456     5.2560     7.4486 C.3          1    LIG   0.0000
  19 C19          2.5698     6.0118     7.1341 C.3          1    LIG   0.0000
  20 C20          1.7460     5.0062     6.3537 C.ar         1    LIG   0.0000
  21 C21          0.3747     4.9914     6.1190 C.ar         1    LIG   0.0000
  22 C22         -0.1438     3.9701     5.3300 C.ar         1    LIG   0.0000
  23 C23          0.7120     3.0027     4.8120 C.ar         1    LIG   0.0000
  24 C24          2.0761     3.0542     5.0875 C.ar         1    LIG   0.0000
  25 C25          2.6274     4.0614     5.8748 C.ar         1    LIG   0.0000
  26 C26          4.4200     3.4909     3.3864 C.ar         1    LIG   0.0000
  27 N27          1.1894     2.0815    -0.0175 N.am         1    LIG   0.0000
  28 C28         -0.0256     1.3841     0.0124 C.2          1    LIG   0.0000
  29 O29         -1.0884     1.9815     0.0178 O.2          1    LIG   0.0000
  30 N30         -0.0457    -0.0182     0.0401 N.am         1    LIG   0.0000
  31 C31          1.2053    -0.7903     0.0544 C.3          1    LIG   0.0000
  32 C32          1.2206    -1.8604    -1.0253 C.ar         1    LIG   0.0000
  33 C33          1.7546    -3.1138    -0.7444 C.ar         1    LIG   0.0000
  34 C34          1.7652    -4.0867    -1.7383 C.ar         1    LIG   0.0000
  35 C35          1.2452    -3.8018    -2.9973 C.ar         1    LIG   0.0000
  36 C36          0.7130    -2.5457    -3.2693 C.ar         1    LIG   0.0000
  37 C37          0.6990    -1.5666    -2.2809 C.ar         1    LIG   0.0000
  38 H            1.2297    -1.2724     0.9302 H            1    LIG   0.0000
  39 H            7.1331    -1.9699    -2.4007 H            1    LIG   0.0000
  40 H            5.6401    -2.0184    -3.0605 H            1    LIG   0.0000
  41 H            6.3850    -0.5835    -2.8307 H            1    LIG   0.0000
  42 H            5.5011    -2.3238    -0.7030 H            1    LIG   0.0000
  43 H            6.2460    -0.8889    -0.4732 H            1    LIG   0.0000
  44 H            4.4786     1.6240    -0.0837 H            1    LIG   0.0000
  45 H            3.6824     2.7904    -0.9036 H            1    LIG   0.0000
  46 H            3.3460     4.0194     1.0729 H            1    LIG   0.0000
  47 H            4.8804     0.7843     1.5090 H            1    LIG   0.0000
  48 H            5.9378     0.0262     3.5161 H            1    LIG   0.0000
  49 H            6.0445     1.4424     5.4393 H            1    LIG   0.0000
  50 H            4.6354     5.8681     7.4888 H            1    LIG   0.0000
  51 H            3.7714     4.7506     8.3083 H            1    LIG   0.0000
  52 H            2.0997     6.2844     7.9736 H            1    LIG   0.0000
  53 H            2.7617     6.8226     6.5812 H            1    LIG   0.0000
  54 H           -0.2210     5.6949     6.5066 H            1    LIG   0.0000
  55 H           -1.1241     3.9313     5.1363 H            1    LIG   0.0000
  56 H            0.3463     2.2684     4.2403 H            1    LIG   0.0000
  57 H            2.6757     2.3487     4.7097 H            1    LIG   0.0000
  58 H            4.0187     4.4062     3.3517 H            1    LIG   0.0000
  59 H            1.1836     3.0813    -0.0353 H            1    LIG   0.0000
  60 H           -0.9224    -0.4990     0.0503 H            1    LIG   0.0000
  61 H            2.1267    -3.3131     0.1621 H            1    LIG   0.0000
  62 H            2.1467    -4.9913    -1.5482 H            1    LIG   0.0000
  63 H            1.2543    -4.5033    -3.7098 H            1    LIG   0.0000
  64 H            0.3402    -2.3464    -4.1755 H            1    LIG   0.0000
  65 H            0.3183    -0.6617    -2.4711 H            1    LIG   0.0000
@<TRIPOS>BOND
   1        1        2 1
   2        2        3 1
   3        3        4 1
   4        4        5 2
   5        4        6 1
   6        6        7 2
   7        7        8 1
   8        8        9 1
   9        9       10 1
  10       10       11 ar
  11       11       12 ar
  12       12       13 ar
  13       13       14 ar
  14       14       15 1
  15       15       16 2
  16       15       17 am
  17       17       18 1
  18       18       19 1
  19       19       20 1
  20       20       21 ar
  21       21       22 ar
  22       22       23 ar
  23       23       24 ar
  24       24       25 ar
  25       25       20 ar
  26       25       17 1
  27       14       26 ar
  28       26       10 ar
  29        7       27 1
  30       27       28 am
  31       28       29 2
  32       28       30 am
  33       30       31 1
  34       31        6 1
  35       31       32 1
  36       32       33 ar
  37       33       34 ar
  38       34       35 ar
  39       35       36 ar
  40       36       37 ar
  41       37       32 ar
  42       31       38 1
  43        1       39 1
  44        1       40 1
  45        1       41 1
  46        2       42 1
  47        2       43 1
  48        8       44 1
  49        8       45 1
  50        9       46 1
  51       11       47 1
  52       12       48 1
  53       13       49 1
  54       18       50 1
  55       18       51 1
  56       19       52 1
  57       19       53 1
  58       21       54 1
  59       22       55 1
  60       23       56 1
  61       24       57 1
  62       26       58 1
  63       27       59 1
  64       30       60 1
  65       33       61 1
  66       34       62 1
  67       35       63 1
  68       36       64 1
  69       37       65 1

@<TRIPOS>MOLECULE

  65   69
SMALL
USER_CHARGES
@<TRIPOS>ATOM
   1 C1           6.2510    -1.5025    -2.4600 C.3          1    LIG   0.0000
   2 C2           5.6351    -1.4048    -1.0738 C.3          1    LIG   0.0000
   3 O3           4.3826    -0.7411    -1.1580 O.3          1    LIG   0.0000
   4 C4           3.7458    -0.5923    -0.0229 C.2          1    LIG   0.0000
   5 O5           4.2287    -1.0060     0.9947 O.2          1    LIG   0.0000
   6 C6           2.4573     0.0723     0.0038 C.2          1    LIG   0.0000
   7 C7           2.4110     1.3985    -0.0229 C.2          1    LIG   0.0000
   8 C8           3.6837     2.2307    -0.0749 C.3          1    LIG   0.0000
   9 N9           3.7468     3.1039     1.1060 N.pl3        1    LIG   0.0000
  10 C10          4.3680     2.6536     2.2771 C.ar         1    LIG   0.0000
  11 C11          4.4218     3.4880     3.3891 C.ar         1    LIG   0.0000
  12 C12          5.0417     3.0302     4.5468 C.ar         1    LIG   0.0000
  13 C13          5.6010     1.7579     4.6004 C.ar         1    LIG   0.0000
  14 C14          5.5356     0.9404     3.4768 C.ar         1    LIG   0.0000
  15 C15          6.1164    -0.3874     3.5228 C.2          1    LIG   0.0000
  16 O16          5.7181    -1.1892     4.3219 O.2          1    LIG   0.0000
  17 N17          7.1398    -0.7333     2.6368 N.am         1    LIG   0.0000
  18 C18          7.7809    -2.0436     2.5548 C.3          1    LIG   0.0000
  19 C19          8.1053    -2.1098     1.0756 C.3          1    LIG   0.0000
  20 C20          8.3123    -0.6572     0.6934 C.ar         1    LIG   0.0000
  21 C21          8.9737    -0.1280    -0.4103 C.ar         1    LIG   0.0000
  22 C22          8.9938     1.2546    -0.5610 C.ar         1    LIG   0.0000
  23 C23          8.3666     2.0563     0.3879 C.ar         1    LIG   0.0000
  24 C24          7.7294     1.4780     1.4828 C.ar         1    LIG   0.0000
  25 C25          7.6921     0.0982     1.6646 C.ar         1    LIG   0.0000
  26 C26          4.9210     1.3779     2.3083 C.ar         1    LIG   0.0000
  27 N27          1.1894     2.0815    -0.0175 N.am         1    LIG   0.0000
  28 C28         -0.0256     1.3841     0.0124 C.2          1    LIG   0.0000
  29 O29         -1.0884     1.9815     0.0178 O.2          1    LIG   0.0000
  30 N30         -0.0457    -0.0182     0.0401 N.am         1    LIG   0.0000
  31 C31          1.2053    -0.7903     0.0544 C.3          1    LIG   0.0000
  32 C32          1.2206    -1.8604    -1.0253 C.ar         1    LIG   0.0000
  33 C33          1.7546    -3.1138    -0.7444 C.ar         1    LIG   0.0000
  34 C34          1.7652    -4.0867    -1.7383 C.ar         1    LIG   0.0000
  35 C35          1.2452    -3.8018    -2.9973 C.ar         1    LIG   0.0000
  36 C36          0.7130    -2.5457    -3.2693 C.ar         1    LIG   0.0000
  37 C37          0.6990    -1.5666    -2.2809 C.ar         1    LIG   0.0000
  38 H            1.2297    -1.2724     0.9302 H            1    LIG   0.0000
  39 H            7.1331    -1.9699    -2.4007 H            1    LIG   0.0000
  40 H            5.6401    -2.0184    -3.0605 H            1    LIG   0.0000
  41 H            6.3850    -0.5835    -2.8307 H            1    LIG   0.0000
  42 H            5.5011    -2.3238    -0.7030 H            1    LIG   0.0000
  43 H            6.2460    -0.8889    -0.4732 H            1    LIG   0.0000
  44 H            4.4786     1.6240    -0.0837 H            1    LIG   0.0000
  45 H            3.6824     2.7904    -0.9036 H            1    LIG   0.0000
  46 H            3.3460     4.0194     1.0729 H            1    LIG   0.0000
  47 H            4.0207     4.4034     3.3564 H            1    LIG   0.0000
  48 H            5.0858     3.6232     5.3508 H            1    LIG   0.0000
  49 H            6.0446     1.4348     5.4363 H            1    LIG   0.0000
  50 H            7.1573    -2.7761     2.8279 H            1    LIG   0.0000
  51 H            8.6082    -2.0841     3.1151 H            1    LIG   0.0000
  52 H            8.9356    -2.6435     0.9153 H            1    LIG   0.0000
  53 H            7.3471    -2.5103     0.5610 H            1    LIG   0.0000
  54 H            9.4218    -0.7244    -1.0762 H            1    LIG   0.0000
  55 H            9.4554     1.6693    -1.3451 H            1    LIG   0.0000
  56 H            8.3734     3.0508     0.2831 H            1    LIG   0.0000
  57 H            7.2868     2.0697     2.1566 H            1    LIG   0.0000
  58 H            4.8774     0.7851     1.5042 H            1    LIG   0.0000
  59 H            1.1836     3.0813    -0.0353 H            1    LIG   0.0000
  60 H           -0.9224    -0.4990     0.0503 H            1    LIG   0.0000
  61 H            2.1267    -3.3131     0.1621 H            1    LIG   0.0000
  62 H            2.1467    -4.9913    -1.5482 H            1    LIG   0.0000
  63 H            1.2543    -4.5033    -3.7098 H            1    LIG   0.0000
  64 H            0.3402    -2.3464    -4.1755 H            1    LIG   0.0000
  65 H            0.3183    -0.6617    -2.4711 H            1    LIG   0.0000
@<TRIPOS>BOND
   1        1        2 1
   2        2        3 1
   3        3        4 1
   4        4        5 2
   5        4        6 1
   6        6        7 2
   7        7        8 1
   8        8        9 1
   9        9       10 1
  10       10       11 ar
  11       11       12 ar
  12       12       13 ar
  13       13       14 ar
  14       14       15 1
  15       15       16 2
  16       15       17 am
  17       17       18 1
  18       18       19 1
  19       19       20 1
  20       20       21 ar
  21       21       22 ar
  22       22       23 ar
  23       23       24 ar
  24       24       25 ar
  25       25       20 ar
  26       25       17 1
  27       14       26 ar
  28       26       10 ar
  29        7       27 1
  30       27       28 am
  31       28       29 2
  32       28       30 am
  33       30       31 1
  34       31        6 1
  35       31       32 1
  36       32       33 ar
  37       33       34 ar
  38       34       35 ar
  39       35       36 ar
  40       36       37 ar
  41       37       32 ar
  42       31       38 1
  43        1       39 1
  44        1       40 1
  45        1       41 1
  46        2       42 1
  47        2       43 1
  48        8       44 1
  49        8       45 1
  50        9       46 1
  51       11       47 1
  52       12       48 1
  53       13       49 1
  54       18       50 1
  55       18       51 1
  56       19       52 1
  57       19       53 1
  58       21       54 1
  59       22       55 1
  60       23       56 1
  61       24       57 1
  62       26       58 1
  63       27       59 1
  64       30       60 1
  65       33       61 1
  66       34       62 1
  67       35       63 1
  68       36       64 1
  69       37       65 1

@<TRIPOS>MOLECULE

  65   69
SMALL
USER_CHARGES
@<TRIPOS>ATOM
   1 C1           6.2510    -1.5025    -2.4600 C.3          1    LIG   0.0000
   2 C2           5.6351    -1.4048    -1.0738 C.3          1    LIG   0.0000
   3 O3           4.3826    -0.7411    -1.1580 O.3          1    LIG   0.0000
   4 C4           3.7458    -0.5923    -0.0229 C.2          1    LIG   0.0000
   5 O5           4.2287    -1.0060     0.9947 O.2          1    LIG   0.0000
   6 C6           2.4573     0.0723     0.0038 C.2          1    LIG   0.0000
   7 C7           2.4110     1.3985    -0.0229 C.2          1    LIG   0.0000
   8 C8           3.6837     2.2307    -0.0749 C.3          1    LIG   0.0000
   9 N9           3.7468     3.1039     1.1060 N.pl3        1    LIG   0.0000
  10 C10          4.3680     2.6536     2.2771 C.ar         1    LIG   0.0000
  11 C11          4.4218     3.4880     3.3891 C.ar         1    LIG   0.0000
  12 C12          5.0417     3.0302     4.5468 C.ar         1    LIG   0.0000
  13 C13          5.6010     1.7579     4.6004 C.ar         1    LIG   0.0000
  14 C14          5.5356     0.9404     3.4768 C.ar         1    LIG   0.0000
  15 C15          6.1164    -0.3874     3.5228 C.2          1    LIG   0.0000
  16 O16          5.7181    -1.1892     4.3219 O.2          1    LIG   0.0000
  17 N17          7.1398    -0.7333     2.6368 N.am         1    LIG   0.0000
  18 C18          7.7380     0.1580     1.6457 C.3          1    LIG   0.0000
  19 C19          9.1599    -0.3661     1.6130 C.3          1    LIG   0.0000
  20 C20          9.0032    -1.8358     1.9516 C.ar         1    LIG   0.0000
  21 C21          9.8850    -2.8867     1.7193 C.ar         1    LIG   0.0000
  22 C22          9.5249    -4.1543     2.1643 C.ar         1    LIG   0.0000
  23 C23          8.3068    -4.3322     2.8131 C.ar         1    LIG   0.0000
  24 C24          7.4528    -3.2499     3.0092 C.ar         1    LIG   0.0000
  25 C25          7.7816    -1.9686     2.5750 C.ar         1    LIG   0.0000
  26 C26          4.9210     1.3779     2.3083 C.ar         1    LIG   0.0000
  27 N27          1.1894     2.0815    -0.0175 N.am         1    LIG   0.0000
  28 C28         -0.0256     1.3841     0.0124 C.2          1    LIG   0.0000
  29 O29         -1.0884     1.9815     0.0178 O.2          1    LIG   0.0000
  30 N30         -0.0457    -0.0182     0.0401 N.am         1    LIG   0.0000
  31 C31          1.2053    -0.7903     0.0544 C.3          1    LIG   0.0000
  32 C32          1.2206    -1.8604    -1.0253 C.ar         1    LIG   0.0000
  33 C33          1.7546    -3.1138    -0.7444 C.ar         1    LIG   0.0000
  34 C34          1.7652    -4.0867    -1.7383 C.ar         1    LIG   0.0000
  35 C35          1.2452    -3.8018    -2.9973 C.ar         1    LIG   0.0000
  36 C36          0.7130    -2.5457    -3.2693 C.ar         1    LIG   0.0000
  37 C37          0.6990    -1.5666    -2.2809 C.ar         1    LIG   0.0000
  38 H            1.2297    -1.2724     0.9302 H            1    LIG   0.0000
  39 H            7.1331    -1.9699    -2.4007 H            1    LIG   0.0000
  40 H            5.6401    -2.0184    -3.0605 H            1    LIG   0.0000
  41 H            6.3850    -0.5835    -2.8307 H            1    LIG   0.0000
  42 H            5.5011    -2.3238    -0.7030 H            1    LIG   0.0000
  43 H            6.2460    -0.8889    -0.4732 H            1    LIG   0.0000
  44 H            4.4786     1.6240    -0.0837 H            1    LIG   0.0000
  45 H            3.6824     2.7904    -0.9036 H            1    LIG   0.0000
  46 H            3.3460     4.0194     1.0729 H            1    LIG   0.0000
  47 H            4.0207     4.4034     3.3564 H            1    LIG   0.0000
  48 H            5.0858     3.6232     5.3508 H            1    LIG   0.0000
  49 H            6.0446     1.4348     5.4363 H            1    LIG   0.0000
  50 H            7.7045     1.1126     1.9416 H            1    LIG   0.0000
  51 H            7.2926     0.0693     0.7547 H            1    LIG   0.0000
  52 H            9.5631    -0.2495     0.7053 H            1    LIG   0.0000
  53 H            9.7279     0.0986     2.2923 H            1    LIG   0.0000
  54 H           10.7527    -2.7350     1.2460 H            1    LIG   0.0000
  55 H           10.1367    -4.9318     2.0191 H            1    LIG   0.0000
  56 H            8.0439    -5.2401     3.1396 H            1    LIG   0.0000
  57 H            6.5799    -3.3968     3.4745 H            1    LIG   0.0000
  58 H            4.8774     0.7851     1.5042 H            1    LIG   0.0000
  59 H            1.1836     3.0813    -0.0353 H            1    LIG   0.0000
  60 H           -0.9224    -0.4990     0.0503 H            1    LIG   0.0000
  61 H            2.1267    -3.3131     0.1621 H            1    LIG   0.0000
  62 H            2.1467    -4.9913    -1.5482 H            1    LIG   0.0000
  63 H            1.2543    -4.5033    -3.7098 H            1    LIG   0.0000
  64 H            0.3402    -2.3464    -4.1755 H            1    LIG   0.0000
  65 H            0.3183    -0.6617    -2.4711 H            1    LIG   0.0000
@<TRIPOS>BOND
   1        1        2 1
   2        2        3 1
   3        3        4 1
   4        4        5 2
   5        4        6 1
   6        6        7 2
   7        7        8 1
   8        8        9 1
   9        9       10 1
  10       10       11 ar
  11       11       12 ar
  12       12       13 ar
  13       13       14 ar
  14       14       15 1
  15       15       16 2
  16       15       17 am
  17       17       18 1
  18       18       19 1
  19       19       20 1
  20       20       21 ar
  21       21       22 ar
  22       22       23 ar
  23       23       24 ar
  24       24       25 ar
  25       25       20 ar
  26       25       17 1
  27       14       26 ar
  28       26       10 ar
  29        7       27 1
  30       27       28 am
  31       28       29 2
  32       28       30 am
  33       30       31 1
  34       31        6 1
  35       31       32 1
  36       32       33 ar
  37       33       34 ar
  38       34       35 ar
  39       35       36 ar
  40       36       37 ar
  41       37       32 ar
  42       31       38 1
  43        1       39 1
  44        1       40 1
  45        1       41 1
  46        2       42 1
  47        2       43 1
  48        8       44 1
  49        8       45 1
  50        9       46 1
  51       11       47 1
  52       12       48 1
  53       13       49 1
  54       18       50 1
  55       18       51 1
  56       19       52 1
  57       19       53 1
  58       21       54 1
  59       22       55 1
  60       23       56 1
  61       24       57 1
  62       26       58 1
  63       27       59 1
  64       30       60 1
  65       33       61 1
  66       34       62 1
  67       35       63 1
  68       36       64 1
  69       37       65 1

@<TRIPOS>MOLECULE

  65   69
SMALL
USER_CHARGES
@<TRIPOS>ATOM
   1 C1           6.2510    -1.5025    -2.4600 C.3          1    LIG   0.0000
   2 C2           5.6351    -1.4048    -1.0738 C.3          1    LIG   0.0000
   3 O3           4.3826    -0.7411    -1.1580 O.3          1    LIG   0.0000
   4 C4           3.7458    -0.5923    -0.0229 C.2          1    LIG   0.0000
   5 O5           4.2287    -1.0060     0.9947 O.2          1    LIG   0.0000
   6 C6           2.4573     0.0723     0.0038 C.2          1    LIG   0.0000
   7 C7           2.4110     1.3985    -0.0229 C.2          1    LIG   0.0000
   8 C8           3.6837     2.2307    -0.0749 C.3          1    LIG   0.0000
   9 N9           3.7468     3.1039     1.1060 N.pl3        1    LIG   0.0000
  10 C10          4.3680     2.6536     2.2771 C.ar         1    LIG   0.0000
  11 C11          4.4218     3.4880     3.3891 C.ar         1    LIG   0.0000
  12 C12          5.0417     3.0302     4.5468 C.ar         1    LIG   0.0000
  13 C13          5.6010     1.7579     4.6004 C.ar         1    LIG   0.0000
  14 C14          5.5356     0.9404     3.4768 C.ar         1    LIG   0.0000
  15 C15          6.1164    -0.3874     3.5228 C.2          1    LIG   0.0000
  16 O16          6.5566    -0.8847     2.5234 O.2          1    LIG   0.0000
  17 N17          6.1634    -1.0878     4.7308 N.am         1    LIG   0.0000
  18 C18          5.6305    -0.6128     6.0055 C.3          1    LIG   0.0000
  19 C19          5.2060    -1.9213     6.6420 C.3          1    LIG   0.0000
  20 C20          6.1770    -2.9296     6.0593 C.ar         1    LIG   0.0000
  21 C21          6.5141    -4.1943     6.5312 C.ar         1    LIG   0.0000
  22 C22          7.4127    -4.9525     5.7881 C.ar         1    LIG   0.0000
  23 C23          7.9459    -4.4276     4.6148 C.ar         1    LIG   0.0000
  24 C24          7.5867    -3.1503     4.1921 C.ar         1    LIG   0.0000
  25 C25          6.6916    -2.3644     4.9129 C.ar         1    LIG   0.0000
  26 C26          4.9210     1.3779     2.3083 C.ar         1    LIG   0.0000
  27 N27          1.1894     2.0815    -0.0175 N.am         1    LIG   0.0000
  28 C28         -0.0256     1.3841     0.0124 C.2          1    LIG   0.0000
  29 O29         -1.0884     1.9815     0.0178 O.2          1    LIG   0.0000
  30 N30         -0.0457    -0.0182     0.0401 N.am         1    LIG   0.0000
  31 C31          1.2053    -0.7903     0.0544 C.3          1    LIG   0.0000
  32 C32          1.2206    -1.8604    -1.0253 C.ar         1    LIG   0.0000
  33 C33          1.7546    -3.1138    -0.7444 C.ar         1    LIG   0.0000
  34 C34          1.7652    -4.0867    -1.7383 C.ar         1    LIG   0.0000
  35 C35          1.2452    -3.8018    -2.9973 C.ar         1    LIG   0.0000
  36 C36          0.7130    -2.5457    -3.2693 C.ar         1    LIG   0.0000
  37 C37          0.6990    -1.5666    -2.2809 C.ar         1    LIG   0.0000
  38 H            1.2297    -1.2724     0.9302 H            1    LIG   0.0000
  39 H            7.1331    -1.9699    -2.4007 H            1    LIG   0.0000
  40 H            5.6401    -2.0184    -3.0605 H            1    LIG   0.0000
  41 H            6.3850    -0.5835    -2.8307 H            1    LIG   0.0000
  42 H            5.5011    -2.3238    -0.7030 H            1    LIG   0.0000
  43 H            6.2460    -0.8889    -0.4732 H            1    LIG   0.0000
  44 H            4.4786     1.6240    -0.0837 H            1    LIG   0.0000
  45 H            3.6824     2.7904    -0.9036 H            1    LIG   0.0000
  46 H            3.3460     4.0194     1.0729 H            1    LIG   0.0000
  47 H            4.0207     4.4034     3.3564 H            1    LIG   0.0000
  48 H            5.0858     3.6232     5.3508 H            1    LIG   0.0000
  49 H            6.0446     1.4348     5.4363 H            1    LIG   0.0000
  50 H            4.8525     0.0014     5.8731 H            1    LIG   0.0000
  51 H            6.3318    -0.1502     6.5480 H            1    LIG   0.0000
  52 H            5.2899    -1.8783     7.6376 H            1    LIG   0.0000
  53 H            4.2638    -2.1492     6.3964 H            1    LIG   0.0000
  54 H            6.1217    -4.5480     7.3802 H            1    LIG   0.0000
  55 H            7.6736    -5.8679     6.0946 H            1    LIG   0.0000
  56 H            8.5889    -4.9693     4.0735 H            1    LIG   0.0000
  57 H            7.9823    -2.7878     3.3483 H            1    LIG   0.0000
  58 H            4.8774     0.7851     1.5042 H            1    LIG   0.0000
  59 H            1.1836     3.0813    -0.0353 H            1    LIG   0.0000
  60 H           -0.9224    -0.4990     0.0503 H            1    LIG   0.0000
  61 H            2.1267    -3.3131     0.1621 H            1    LIG   0.0000
  62 H            2.1467    -4.9913    -1.5482 H            1    LIG   0.0000
  63 H            1.2543    -4.5033    -3.7098 H            1    LIG   0.0000
  64 H            0.3402    -2.3464    -4.1755 H            1    LIG   0.0000
  65 H            0.3183    -0.6617    -2.4711 H            1    LIG   0.0000
@<TRIPOS>BOND
   1        1        2 1
   2        2        3 1
   3        3        4 1
   4        4        5 2
   5        4        6 1
   6        6        7 2
   7        7        8 1
   8        8        9 1
   9        9       10 1
  10       10       11 ar
  11       11       12 ar
  12       12       13 ar
  13       13       14 ar
  14       14       15 1
  15       15       16 2
  16       15       17 am
  17       17       18 1
  18       18       19 1
  19       19       20 1
  20       20       21 ar
  21       21       22 ar
  22       22       23 ar
  23       23       24 ar
  24       24       25 ar
  25       25       20 ar
  26       25       17 1
  27       14       26 ar
  28       26       10 ar
  29        7       27 1
  30       27       28 am
  31       28       29 2
  32       28       30 am
  33       30       31 1
  34       31        6 1
  35       31       32 1
  36       32       33 ar
  37       33       34 ar
  38       34       35 ar
  39       35       36 ar
  40       36       37 ar
  41       37       32 ar
  42       31       38 1
  43        1       39 1
  44        1       40 1
  45        1       41 1
  46        2       42 1
  47        2       43 1
  48        8       44 1
  49        8       45 1
  50        9       46 1
  51       11       47 1
  52       12       48 1
  53       13       49 1
  54       18       50 1
  55       18       51 1
  56       19       52 1
  57       19       53 1
  58       21       54 1
  59       22       55 1
  60       23       56 1
  61       24       57 1
  62       26       58 1
  63       27       59 1
  64       30       60 1
  65       33       61 1
  66       34       62 1
  67       35       63 1
  68       36       64 1
  69       37       65 1

