@<TRIPOS>MOLECULE
*****
 65 69 0 0 0
SMALL
USER_CHARGES

@<TRIPOS>ATOM
      1 C1          6.2510   -1.5025   -2.4600 C.3     1  LIG1        0.0000
      2 C2          5.6351   -1.4048   -1.0738 C.3     1  LIG1        0.0000
      3 O3          4.3826   -0.7411   -1.1580 O.3     1  LIG1        0.0000
      4 C4          3.7458   -0.5923   -0.0229 C.2     1  LIG1        0.0000
      5 O5          4.2287   -1.0060    0.9947 O.2     1  LIG1        0.0000
      6 C6          2.4573    0.0723    0.0038 C.2     1  LIG1        0.0000
      7 C7          2.4110    1.3985   -0.0229 C.2     1  LIG1        0.0000
      8 C8          3.6837    2.2307   -0.0749 C.3     1  LIG1        0.0000
      9 N9          3.7468    3.1039    1.1060 N.pl3   1  LIG1        0.0000
     10 C10         4.8342    3.9684    1.2801 C.3     1  LIG1        0.0000
     11 C11         4.8841    4.7902    2.4015 C.3     1  LIG1        0.0000
     12 C12         5.9690    5.6452    2.5637 C.3     1  LIG1        0.0000
     13 C13         6.9933    5.6831    1.6236 C.3     1  LIG1        0.0000
     14 C14         6.9229    4.8526    0.5099 C.3     1  LIG1        0.0000
     15 C15         7.9857    4.8855   -0.4759 C.2     1  LIG1        0.0000
     16 O16         8.2519    3.8984   -1.1043 O.2     1  LIG1        0.0000
     17 N17         8.7015    6.0691   -0.6947 N.am    1  LIG1        0.0000
     18 C18         8.4604    7.3518   -0.0364 C.3     1  LIG1        0.0000
     19 C19         8.8281    8.3316   -1.1337 C.3     1  LIG1        0.0000
     20 C20         9.8957    7.5805   -1.9043 C.3     1  LIG1        0.0000
     21 C21        10.8658    8.0481   -2.7849 C.3     1  LIG1        0.0000
     22 C22        11.7202    7.1341   -3.3914 C.3     1  LIG1        0.0000
     23 C23        11.5885    5.7790   -3.1070 C.3     1  LIG1        0.0000
     24 C24        10.6071    5.3458   -2.2211 C.3     1  LIG1        0.0000
     25 C25         9.7426    6.2462   -1.6048 C.3     1  LIG1        0.0000
     26 C26         5.8471    3.9902    0.3273 C.3     1  LIG1        0.0000
     27 N27         1.1894    2.0815   -0.0175 N.am    1  LIG1        0.0000
     28 C28        -0.0256    1.3841    0.0124 C.2     1  LIG1        0.0000
     29 O29        -1.0884    1.9815    0.0178 O.2     1  LIG1        0.0000
     30 N30        -0.0457   -0.0182    0.0401 N.am    1  LIG1        0.0000
     31 C31         1.2053   -0.7903    0.0544 C.3     1  LIG1        0.0000
     32 C32         1.2206   -1.8604   -1.0253 C.3     1  LIG1        0.0000
     33 C33         0.8974   -1.5212   -2.3350 C.3     1  LIG1        0.0000
     34 C34         0.9133   -2.5067   -3.3164 C.3     1  LIG1        0.0000
     35 C35         1.2501   -3.8153   -2.9838 C.3     1  LIG1        0.0000
     36 C36         1.5722   -4.1455   -1.6714 C.3     1  LIG1        0.0000
     37 C37         1.5582   -3.1659   -0.6836 C.3     1  LIG1        0.0000
     38 H           1.2297   -1.2724    0.9302 H       1  LIG1        0.0000
     39 H           7.1331   -1.9699   -2.4007 H       1  LIG1        0.0000
     40 H           5.6401   -2.0184   -3.0605 H       1  LIG1        0.0000
     41 H           6.3850   -0.5835   -2.8307 H       1  LIG1        0.0000
     42 H           5.5011   -2.3238   -0.7030 H       1  LIG1        0.0000
     43 H           6.2460   -0.8889   -0.4732 H       1  LIG1        0.0000
     44 H           4.4786    1.6240   -0.0837 H       1  LIG1        0.0000
     45 H           3.6824    2.7904   -0.9036 H       1  LIG1        0.0000
     46 H           3.0131    3.0803    1.7851 H       1  LIG1        0.0000
     47 H           4.1507    4.7665    3.0809 H       1  LIG1        0.0000
     48 H           6.0131    6.2402    3.3662 H       1  LIG1        0.0000
     49 H           7.7708    6.2998    1.7468 H       1  LIG1        0.0000
     50 H           9.0460    7.4659    0.7660 H       1  LIG1        0.0000
     51 H           7.5024    7.4490    0.2335 H       1  LIG1        0.0000
     52 H           8.0400    8.5356   -1.7144 H       1  LIG1        0.0000
     53 H           9.1898    9.1821   -0.7517 H       1  LIG1        0.0000
     54 H          10.9473    9.0258   -2.9786 H       1  LIG1        0.0000
     55 H          12.4245    7.4489   -4.0277 H       1  LIG1        0.0000
     56 H          12.1995    5.1159   -3.5394 H       1  LIG1        0.0000
     57 H          10.5211    4.3693   -2.0234 H       1  LIG1        0.0000
     58 H           5.8027    3.3956   -0.4755 H       1  LIG1        0.0000
     59 H           1.1836    3.0813   -0.0353 H       1  LIG1        0.0000
     60 H          -0.9224   -0.4990    0.0503 H       1  LIG1        0.0000
     61 H           0.6564   -0.5792   -2.5684 H       1  LIG1        0.0000
     62 H           0.6826   -2.2748   -4.2614 H       1  LIG1        0.0000
     63 H           1.2607   -4.5217   -3.6915 H       1  LIG1        0.0000
     64 H           1.8140   -5.0874   -1.4379 H       1  LIG1        0.0000
     65 H           1.7881   -3.3978    0.2616 H       1  LIG1        0.0000
@<TRIPOS>BOND
     1     1     2    1
     2     2     3    1
     3     3     4    1
     4     4     5    2
     5     4     6    1
     6     6     7    2
     7     7     8    1
     8     8     9    1
     9     9    10    1
    10    10    11   ar
    11    11    12   ar
    12    12    13   ar
    13    13    14   ar
    14    14    15    1
    15    15    16    2
    16    15    17   am
    17    17    18    1
    18    18    19    1
    19    19    20    1
    20    20    21   ar
    21    21    22   ar
    22    22    23   ar
    23    23    24   ar
    24    24    25   ar
    25    25    20   ar
    26    25    17    1
    27    14    26   ar
    28    26    10   ar
    29     7    27    1
    30    27    28   am
    31    28    29    2
    32    28    30   am
    33    30    31    1
    34    31     6    1
    35    31    32    1
    36    32    33   ar
    37    33    34   ar
    38    34    35   ar
    39    35    36   ar
    40    36    37   ar
    41    37    32   ar
    42    31    38    1
    43     1    39    1
    44     1    40    1
    45     1    41    1
    46     2    42    1
    47     2    43    1
    48     8    44    1
    49     8    45    1
    50     9    46    1
    51    11    47    1
    52    12    48    1
    53    13    49    1
    54    18    50    1
    55    18    51    1
    56    19    52    1
    57    19    53    1
    58    21    54    1
    59    22    55    1
    60    23    56    1
    61    24    57    1
    62    26    58    1
    63    27    59    1
    64    30    60    1
    65    33    61    1
    66    34    62    1
    67    35    63    1
    68    36    64    1
    69    37    65    1
