@<TRIPOS>MOLECULE
*****
 65 69 0 0 0
SMALL
USER_CHARGES

@<TRIPOS>ATOM
      1 C1          6.2510   -1.5025   -2.4600 C.3     1  LIG1        0.0000
      2 C2          5.6351   -1.4048   -1.0738 C.3     1  LIG1        0.0000
      3 O3          4.3826   -0.7411   -1.1580 O.3     1  LIG1        0.0000
      4 C4          3.7458   -0.5923   -0.0229 C.2     1  LIG1        0.0000
      5 O5          4.2287   -1.0060    0.9947 O.2     1  LIG1        0.0000
      6 C6          2.4573    0.0723    0.0038 C.2     1  LIG1        0.0000
      7 C7          2.4110    1.3985   -0.0229 C.2     1  LIG1        0.0000
      8 C8          3.6837    2.2307   -0.0749 C.3     1  LIG1        0.0000
      9 N9          3.7468    3.1039    1.1060 N.pl3   1  LIG1        0.0000
     10 C10         4.8342    3.9684    1.2801 C.3     1  LIG1        0.0000
     11 C11         5.8493    3.9935    0.3291 C.3     1  LIG1        0.0000
     12 C12         6.9247    4.8561    0.5127 C.3     1  LIG1        0.0000
     13 C13         6.9909    5.6853    1.6273 C.3     1  LIG1        0.0000
     14 C14         5.9647    5.6439    2.5654 C.3     1  LIG1        0.0000
     15 C15         6.0252    6.5042    3.7311 C.2     1  LIG1        0.0000
     16 O16         5.5190    6.1550    4.7615 O.2     1  LIG1        0.0000
     17 N17         6.6730    7.7398    3.6545 N.am    1  LIG1        0.0000
     18 C18         7.2941    8.2965    2.4549 C.3     1  LIG1        0.0000
     19 C19         7.0651    9.7783    2.6774 C.3     1  LIG1        0.0000
     20 C20         7.0610    9.9129    4.1876 C.3     1  LIG1        0.0000
     21 C21         7.2573   11.0494    4.9660 C.3     1  LIG1        0.0000
     22 C22         7.1654   10.9207    6.3478 C.3     1  LIG1        0.0000
     23 C23         6.8909    9.6746    6.9031 C.3     1  LIG1        0.0000
     24 C24         6.7160    8.5644    6.0810 C.3     1  LIG1        0.0000
     25 C25         6.8030    8.6579    4.6946 C.3     1  LIG1        0.0000
     26 C26         4.8801    4.7886    2.4023 C.3     1  LIG1        0.0000
     27 N27         1.1894    2.0815   -0.0175 N.am    1  LIG1        0.0000
     28 C28        -0.0256    1.3841    0.0124 C.2     1  LIG1        0.0000
     29 O29        -1.0884    1.9815    0.0178 O.2     1  LIG1        0.0000
     30 N30        -0.0457   -0.0182    0.0401 N.am    1  LIG1        0.0000
     31 C31         1.2053   -0.7903    0.0544 C.3     1  LIG1        0.0000
     32 C32         1.2206   -1.8604   -1.0253 C.3     1  LIG1        0.0000
     33 C33         0.8974   -1.5212   -2.3350 C.3     1  LIG1        0.0000
     34 C34         0.9133   -2.5067   -3.3164 C.3     1  LIG1        0.0000
     35 C35         1.2501   -3.8153   -2.9838 C.3     1  LIG1        0.0000
     36 C36         1.5722   -4.1455   -1.6714 C.3     1  LIG1        0.0000
     37 C37         1.5582   -3.1659   -0.6836 C.3     1  LIG1        0.0000
     38 H           1.2297   -1.2724    0.9302 H       1  LIG1        0.0000
     39 H           7.1331   -1.9699   -2.4007 H       1  LIG1        0.0000
     40 H           5.6401   -2.0184   -3.0605 H       1  LIG1        0.0000
     41 H           6.3850   -0.5835   -2.8307 H       1  LIG1        0.0000
     42 H           5.5011   -2.3238   -0.7030 H       1  LIG1        0.0000
     43 H           6.2460   -0.8889   -0.4732 H       1  LIG1        0.0000
     44 H           4.4786    1.6240   -0.0837 H       1  LIG1        0.0000
     45 H           3.6824    2.7904   -0.9036 H       1  LIG1        0.0000
     46 H           3.0131    3.0803    1.7851 H       1  LIG1        0.0000
     47 H           5.8064    3.4000   -0.4746 H       1  LIG1        0.0000
     48 H           7.6594    4.8805   -0.1652 H       1  LIG1        0.0000
     49 H           7.7667    6.3037    1.7527 H       1  LIG1        0.0000
     50 H           6.8414    7.9751    1.6232 H       1  LIG1        0.0000
     51 H           8.2688    8.0775    2.4098 H       1  LIG1        0.0000
     52 H           7.8026   10.3187    2.2723 H       1  LIG1        0.0000
     53 H           6.1893   10.0667    2.2904 H       1  LIG1        0.0000
     54 H           7.4587   11.9333    4.5439 H       1  LIG1        0.0000
     55 H           7.2957   11.7176    6.9378 H       1  LIG1        0.0000
     56 H           6.8191    9.5762    7.8957 H       1  LIG1        0.0000
     57 H           6.5227    7.6760    6.4975 H       1  LIG1        0.0000
     58 H           4.1457    4.7639    3.0805 H       1  LIG1        0.0000
     59 H           1.1836    3.0813   -0.0353 H       1  LIG1        0.0000
     60 H          -0.9224   -0.4990    0.0503 H       1  LIG1        0.0000
     61 H           0.6564   -0.5792   -2.5684 H       1  LIG1        0.0000
     62 H           0.6826   -2.2748   -4.2614 H       1  LIG1        0.0000
     63 H           1.2607   -4.5217   -3.6915 H       1  LIG1        0.0000
     64 H           1.8140   -5.0874   -1.4379 H       1  LIG1        0.0000
     65 H           1.7881   -3.3978    0.2616 H       1  LIG1        0.0000
@<TRIPOS>BOND
     1     1     2    1
     2     2     3    1
     3     3     4    1
     4     4     5    2
     5     4     6    1
     6     6     7    2
     7     7     8    1
     8     8     9    1
     9     9    10    1
    10    10    11   ar
    11    11    12   ar
    12    12    13   ar
    13    13    14   ar
    14    14    15    1
    15    15    16    2
    16    15    17   am
    17    17    18    1
    18    18    19    1
    19    19    20    1
    20    20    21   ar
    21    21    22   ar
    22    22    23   ar
    23    23    24   ar
    24    24    25   ar
    25    25    20   ar
    26    25    17    1
    27    14    26   ar
    28    26    10   ar
    29     7    27    1
    30    27    28   am
    31    28    29    2
    32    28    30   am
    33    30    31    1
    34    31     6    1
    35    31    32    1
    36    32    33   ar
    37    33    34   ar
    38    34    35   ar
    39    35    36   ar
    40    36    37   ar
    41    37    32   ar
    42    31    38    1
    43     1    39    1
    44     1    40    1
    45     1    41    1
    46     2    42    1
    47     2    43    1
    48     8    44    1
    49     8    45    1
    50     9    46    1
    51    11    47    1
    52    12    48    1
    53    13    49    1
    54    18    50    1
    55    18    51    1
    56    19    52    1
    57    19    53    1
    58    21    54    1
    59    22    55    1
    60    23    56    1
    61    24    57    1
    62    26    58    1
    63    27    59    1
    64    30    60    1
    65    33    61    1
    66    34    62    1
    67    35    63    1
    68    36    64    1
    69    37    65    1
