@<TRIPOS>MOLECULE
*****
 65 69 0 0 0
SMALL
USER_CHARGES

@<TRIPOS>ATOM
      1 C1          6.4012   -1.4020    2.2873 C.3     1  LIG1        0.0000
      2 C2          5.6988   -1.3622    0.9399 C.3     1  LIG1        0.0000
      3 O3          4.4533   -0.6938    1.0749 O.3     1  LIG1        0.0000
      4 C4          3.7458   -0.5923   -0.0229 C.2     1  LIG1        0.0000
      5 O5          4.1640   -1.0493   -1.0507 O.2     1  LIG1        0.0000
      6 C6          2.4573    0.0723    0.0038 C.2     1  LIG1        0.0000
      7 C7          2.4110    1.3985   -0.0229 C.2     1  LIG1        0.0000
      8 C8          3.6837    2.2307   -0.0749 C.3     1  LIG1        0.0000
      9 N9          3.7468    3.1039    1.1060 N.pl3   1  LIG1        0.0000
     10 C10         4.8342    3.9684    1.2801 C.3     1  LIG1        0.0000
     11 C11         4.8841    4.7902    2.4015 C.3     1  LIG1        0.0000
     12 C12         5.9690    5.6452    2.5637 C.3     1  LIG1        0.0000
     13 C13         6.9933    5.6831    1.6236 C.3     1  LIG1        0.0000
     14 C14         6.9229    4.8526    0.5099 C.3     1  LIG1        0.0000
     15 C15         7.9857    4.8855   -0.4759 C.2     1  LIG1        0.0000
     16 O16         8.2331    5.9054   -1.0576 O.2     1  LIG1        0.0000
     17 N17         8.7234    3.7268   -0.7491 N.am    1  LIG1        0.0000
     18 C18         8.5617    2.4316   -0.0913 C.3     1  LIG1        0.0000
     19 C19         9.9832    1.9040   -0.1027 C.3     1  LIG1        0.0000
     20 C20        10.5582    2.5286   -1.3586 C.3     1  LIG1        0.0000
     21 C21        11.6729    2.1724   -2.1107 C.3     1  LIG1        0.0000
     22 C22        12.0076    2.9388   -3.2215 C.3     1  LIG1        0.0000
     23 C23        11.2257    4.0394   -3.5562 C.3     1  LIG1        0.0000
     24 C24        10.1173    4.3672   -2.7818 C.3     1  LIG1        0.0000
     25 C25         9.7672    3.6118   -1.6661 C.3     1  LIG1        0.0000
     26 C26         5.8471    3.9902    0.3273 C.3     1  LIG1        0.0000
     27 N27         1.1894    2.0815   -0.0175 N.am    1  LIG1        0.0000
     28 C28        -0.0256    1.3841    0.0124 C.2     1  LIG1        0.0000
     29 O29        -1.0884    1.9815    0.0178 O.2     1  LIG1        0.0000
     30 N30        -0.0457   -0.0182    0.0401 N.am    1  LIG1        0.0000
     31 C31         1.2053   -0.7903    0.0544 C.3     1  LIG1        0.0000
     32 C32         1.2206   -1.8604   -1.0253 C.3     1  LIG1        0.0000
     33 C33         1.7546   -3.1138   -0.7444 C.3     1  LIG1        0.0000
     34 C34         1.7652   -4.0867   -1.7383 C.3     1  LIG1        0.0000
     35 C35         1.2452   -3.8018   -2.9973 C.3     1  LIG1        0.0000
     36 C36         0.7130   -2.5457   -3.2693 C.3     1  LIG1        0.0000
     37 C37         0.6990   -1.5666   -2.2809 C.3     1  LIG1        0.0000
     38 H           1.2297   -1.2724    0.9302 H       1  LIG1        0.0000
     39 H           7.2784   -1.8727    2.1922 H       1  LIG1        0.0000
     40 H           6.5572   -0.4683    2.6096 H       1  LIG1        0.0000
     41 H           5.8302   -1.8912    2.9465 H       1  LIG1        0.0000
     42 H           6.2699   -0.8730    0.2806 H       1  LIG1        0.0000
     43 H           5.5429   -2.2959    0.6175 H       1  LIG1        0.0000
     44 H           4.4786    1.6240   -0.0837 H       1  LIG1        0.0000
     45 H           3.6824    2.7904   -0.9036 H       1  LIG1        0.0000
     46 H           3.0131    3.0803    1.7851 H       1  LIG1        0.0000
     47 H           4.1507    4.7665    3.0809 H       1  LIG1        0.0000
     48 H           6.0131    6.2402    3.3662 H       1  LIG1        0.0000
     49 H           7.7708    6.2998    1.7468 H       1  LIG1        0.0000
     50 H           7.9468    1.8348   -0.6068 H       1  LIG1        0.0000
     51 H           8.2190    2.5368    0.8423 H       1  LIG1        0.0000
     52 H          10.4848    2.2006    0.7100 H       1  LIG1        0.0000
     53 H           9.9972    0.9056   -0.1572 H       1  LIG1        0.0000
     54 H          12.2246    1.3780   -1.8565 H       1  LIG1        0.0000
     55 H          12.8050    2.7005   -3.7759 H       1  LIG1        0.0000
     56 H          11.4603    4.5952   -4.3537 H       1  LIG1        0.0000
     57 H           9.5617    5.1603   -3.0313 H       1  LIG1        0.0000
     58 H           5.8027    3.3956   -0.4755 H       1  LIG1        0.0000
     59 H           1.1836    3.0813   -0.0353 H       1  LIG1        0.0000
     60 H          -0.9224   -0.4990    0.0503 H       1  LIG1        0.0000
     61 H           2.1267   -3.3131    0.1621 H       1  LIG1        0.0000
     62 H           2.1467   -4.9913   -1.5482 H       1  LIG1        0.0000
     63 H           1.2543   -4.5033   -3.7098 H       1  LIG1        0.0000
     64 H           0.3402   -2.3464   -4.1755 H       1  LIG1        0.0000
     65 H           0.3183   -0.6617   -2.4711 H       1  LIG1        0.0000
@<TRIPOS>BOND
     1     1     2    1
     2     2     3    1
     3     3     4    1
     4     4     5    2
     5     4     6    1
     6     6     7    2
     7     7     8    1
     8     8     9    1
     9     9    10    1
    10    10    11   ar
    11    11    12   ar
    12    12    13   ar
    13    13    14   ar
    14    14    15    1
    15    15    16    2
    16    15    17   am
    17    17    18    1
    18    18    19    1
    19    19    20    1
    20    20    21   ar
    21    21    22   ar
    22    22    23   ar
    23    23    24   ar
    24    24    25   ar
    25    25    20   ar
    26    25    17    1
    27    14    26   ar
    28    26    10   ar
    29     7    27    1
    30    27    28   am
    31    28    29    2
    32    28    30   am
    33    30    31    1
    34    31     6    1
    35    31    32    1
    36    32    33   ar
    37    33    34   ar
    38    34    35   ar
    39    35    36   ar
    40    36    37   ar
    41    37    32   ar
    42    31    38    1
    43     1    39    1
    44     1    40    1
    45     1    41    1
    46     2    42    1
    47     2    43    1
    48     8    44    1
    49     8    45    1
    50     9    46    1
    51    11    47    1
    52    12    48    1
    53    13    49    1
    54    18    50    1
    55    18    51    1
    56    19    52    1
    57    19    53    1
    58    21    54    1
    59    22    55    1
    60    23    56    1
    61    24    57    1
    62    26    58    1
    63    27    59    1
    64    30    60    1
    65    33    61    1
    66    34    62    1
    67    35    63    1
    68    36    64    1
    69    37    65    1
