@<TRIPOS>MOLECULE
*****
 65 69 0 0 0
SMALL
USER_CHARGES

@<TRIPOS>ATOM
      1 C1          6.2510   -1.5025   -2.4600 C.3     1  LIG1        0.0000
      2 C2          5.6351   -1.4048   -1.0738 C.3     1  LIG1        0.0000
      3 O3          4.3826   -0.7411   -1.1580 O.3     1  LIG1        0.0000
      4 C4          3.7458   -0.5923   -0.0229 C.2     1  LIG1        0.0000
      5 O5          4.2287   -1.0060    0.9947 O.2     1  LIG1        0.0000
      6 C6          2.4573    0.0723    0.0038 C.2     1  LIG1        0.0000
      7 C7          2.4110    1.3985   -0.0229 C.2     1  LIG1        0.0000
      8 C8          3.6837    2.2307   -0.0749 C.3     1  LIG1        0.0000
      9 N9          3.7468    3.1039    1.1060 N.pl3   1  LIG1        0.0000
     10 C10         4.3680    2.6536    2.2771 C.3     1  LIG1        0.0000
     11 C11         4.4218    3.4880    3.3891 C.3     1  LIG1        0.0000
     12 C12         5.0417    3.0302    4.5468 C.3     1  LIG1        0.0000
     13 C13         5.6010    1.7579    4.6004 C.3     1  LIG1        0.0000
     14 C14         5.5356    0.9404    3.4768 C.3     1  LIG1        0.0000
     15 C15         6.1164   -0.3874    3.5228 C.2     1  LIG1        0.0000
     16 O16         5.7181   -1.1892    4.3219 O.2     1  LIG1        0.0000
     17 N17         7.1398   -0.7333    2.6368 N.am    1  LIG1        0.0000
     18 C18         7.7809   -2.0436    2.5548 C.3     1  LIG1        0.0000
     19 C19         8.1053   -2.1098    1.0756 C.3     1  LIG1        0.0000
     20 C20         8.3123   -0.6572    0.6934 C.3     1  LIG1        0.0000
     21 C21         8.9737   -0.1280   -0.4103 C.3     1  LIG1        0.0000
     22 C22         8.9938    1.2546   -0.5610 C.3     1  LIG1        0.0000
     23 C23         8.3666    2.0563    0.3879 C.3     1  LIG1        0.0000
     24 C24         7.7294    1.4780    1.4828 C.3     1  LIG1        0.0000
     25 C25         7.6921    0.0982    1.6646 C.3     1  LIG1        0.0000
     26 C26         4.9210    1.3779    2.3083 C.3     1  LIG1        0.0000
     27 N27         1.1894    2.0815   -0.0175 N.am    1  LIG1        0.0000
     28 C28        -0.0256    1.3841    0.0124 C.2     1  LIG1        0.0000
     29 O29        -1.0884    1.9815    0.0178 O.2     1  LIG1        0.0000
     30 N30        -0.0457   -0.0182    0.0401 N.am    1  LIG1        0.0000
     31 C31         1.2053   -0.7903    0.0544 C.3     1  LIG1        0.0000
     32 C32         1.2206   -1.8604   -1.0253 C.3     1  LIG1        0.0000
     33 C33         1.7546   -3.1138   -0.7444 C.3     1  LIG1        0.0000
     34 C34         1.7652   -4.0867   -1.7383 C.3     1  LIG1        0.0000
     35 C35         1.2452   -3.8018   -2.9973 C.3     1  LIG1        0.0000
     36 C36         0.7130   -2.5457   -3.2693 C.3     1  LIG1        0.0000
     37 C37         0.6990   -1.5666   -2.2809 C.3     1  LIG1        0.0000
     38 H           1.2297   -1.2724    0.9302 H       1  LIG1        0.0000
     39 H           7.1331   -1.9699   -2.4007 H       1  LIG1        0.0000
     40 H           5.6401   -2.0184   -3.0605 H       1  LIG1        0.0000
     41 H           6.3850   -0.5835   -2.8307 H       1  LIG1        0.0000
     42 H           5.5011   -2.3238   -0.7030 H       1  LIG1        0.0000
     43 H           6.2460   -0.8889   -0.4732 H       1  LIG1        0.0000
     44 H           4.4786    1.6240   -0.0837 H       1  LIG1        0.0000
     45 H           3.6824    2.7904   -0.9036 H       1  LIG1        0.0000
     46 H           3.3460    4.0194    1.0729 H       1  LIG1        0.0000
     47 H           4.0207    4.4034    3.3564 H       1  LIG1        0.0000
     48 H           5.0858    3.6232    5.3508 H       1  LIG1        0.0000
     49 H           6.0446    1.4348    5.4363 H       1  LIG1        0.0000
     50 H           7.1573   -2.7761    2.8279 H       1  LIG1        0.0000
     51 H           8.6082   -2.0841    3.1151 H       1  LIG1        0.0000
     52 H           8.9356   -2.6435    0.9153 H       1  LIG1        0.0000
     53 H           7.3471   -2.5103    0.5610 H       1  LIG1        0.0000
     54 H           9.4218   -0.7244   -1.0762 H       1  LIG1        0.0000
     55 H           9.4554    1.6693   -1.3451 H       1  LIG1        0.0000
     56 H           8.3734    3.0508    0.2831 H       1  LIG1        0.0000
     57 H           7.2868    2.0697    2.1566 H       1  LIG1        0.0000
     58 H           4.8774    0.7851    1.5042 H       1  LIG1        0.0000
     59 H           1.1836    3.0813   -0.0353 H       1  LIG1        0.0000
     60 H          -0.9224   -0.4990    0.0503 H       1  LIG1        0.0000
     61 H           2.1267   -3.3131    0.1621 H       1  LIG1        0.0000
     62 H           2.1467   -4.9913   -1.5482 H       1  LIG1        0.0000
     63 H           1.2543   -4.5033   -3.7098 H       1  LIG1        0.0000
     64 H           0.3402   -2.3464   -4.1755 H       1  LIG1        0.0000
     65 H           0.3183   -0.6617   -2.4711 H       1  LIG1        0.0000
@<TRIPOS>BOND
     1     1     2    1
     2     2     3    1
     3     3     4    1
     4     4     5    2
     5     4     6    1
     6     6     7    2
     7     7     8    1
     8     8     9    1
     9     9    10    1
    10    10    11   ar
    11    11    12   ar
    12    12    13   ar
    13    13    14   ar
    14    14    15    1
    15    15    16    2
    16    15    17   am
    17    17    18    1
    18    18    19    1
    19    19    20    1
    20    20    21   ar
    21    21    22   ar
    22    22    23   ar
    23    23    24   ar
    24    24    25   ar
    25    25    20   ar
    26    25    17    1
    27    14    26   ar
    28    26    10   ar
    29     7    27    1
    30    27    28   am
    31    28    29    2
    32    28    30   am
    33    30    31    1
    34    31     6    1
    35    31    32    1
    36    32    33   ar
    37    33    34   ar
    38    34    35   ar
    39    35    36   ar
    40    36    37   ar
    41    37    32   ar
    42    31    38    1
    43     1    39    1
    44     1    40    1
    45     1    41    1
    46     2    42    1
    47     2    43    1
    48     8    44    1
    49     8    45    1
    50     9    46    1
    51    11    47    1
    52    12    48    1
    53    13    49    1
    54    18    50    1
    55    18    51    1
    56    19    52    1
    57    19    53    1
    58    21    54    1
    59    22    55    1
    60    23    56    1
    61    24    57    1
    62    26    58    1
    63    27    59    1
    64    30    60    1
    65    33    61    1
    66    34    62    1
    67    35    63    1
    68    36    64    1
    69    37    65    1
