@<TRIPOS>MOLECULE

  30   31
SMALL
USER_CHARGES
@<TRIPOS>ATOM
   1 C1           1.2925     1.2925    -0.4626 C.3          1    LIG   0.0000
   2 C2           1.0000     1.0000     1.0000 C.3          1    LIG   0.0000
   3 C3           1.8776     1.8776     1.8776 C.3          1    LIG   0.0000
   4 C4           3.3402     1.5850     1.5850 C.3          1    LIG   0.0000
   5 S5           1.5292     1.5292     3.6192 S.3          1    LIG   0.0000
   6 C6           2.6101     2.6101     4.4455 C.2          1    LIG   0.0000
   7 N7           3.4213     3.4188     3.8854 N.2          1    LIG   0.0000
   8 C8           4.2998     4.2709     4.5765 C.ar         1    LIG   0.0000
   9 C9           5.3698     4.7835     3.8523 C.ar         1    LIG   0.0000
  10 C10          6.2850     5.6413     4.4527 C.ar         1    LIG   0.0000
  11 C11          6.1352     5.9931     5.7903 C.ar         1    LIG   0.0000
  12 C12          5.0787     5.4990     6.5460 C.ar         1    LIG   0.0000
  13 C13          4.1817     4.6453     5.9219 C.ar         1    LIG   0.0000
  14 C14          3.0707     4.1704     6.8385 C.3          1    LIG   0.0000
  15 S15          2.5639     2.5639     6.1816 S.3          1    LIG   0.0000
  16 H            1.6851     2.8398     1.6851 H            1    LIG   0.0000
  17 H            0.7152     0.7152    -1.0400 H            1    LIG   0.0000
  18 H            1.1001     2.2548    -0.6551 H            1    LIG   0.0000
  19 H            2.2548     1.1001    -0.6551 H            1    LIG   0.0000
  20 H            0.0377     1.1925     1.1925 H            1    LIG   0.0000
  21 H            1.1925     0.0377     1.1925 H            1    LIG   0.0000
  22 H            3.5326     1.7775     0.6228 H            1    LIG   0.0000
  23 H            3.9175     2.1624     2.1624 H            1    LIG   0.0000
  24 H            3.5326     0.6228     1.7775 H            1    LIG   0.0000
  25 H            5.4825     4.5331     2.8908 H            1    LIG   0.0000
  26 H            7.0509     6.0053     3.9229 H            1    LIG   0.0000
  27 H            6.7975     6.6109     6.2143 H            1    LIG   0.0000
  28 H            4.9691     5.7505     7.5076 H            1    LIG   0.0000
  29 H            3.4064     4.0754     7.7757 H            1    LIG   0.0000
  30 H            2.3046     4.8129     6.8224 H            1    LIG   0.0000
@<TRIPOS>BOND
   1        1        2 1
   2        2        3 1
   3        3        4 1
   4        3        5 1
   5        5        6 1
   6        6        7 2
   7        7        8 1
   8        8        9 ar
   9        9       10 ar
  10       10       11 ar
  11       11       12 ar
  12       12       13 ar
  13       13        8 ar
  14       13       14 1
  15       14       15 1
  16       15        6 1
  17        3       16 1
  18        1       17 1
  19        1       18 1
  20        1       19 1
  21        2       20 1
  22        2       21 1
  23        4       22 1
  24        4       23 1
  25        4       24 1
  26        9       25 1
  27       10       26 1
  28       11       27 1
  29       12       28 1
  30       14       29 1
  31       14       30 1

@<TRIPOS>MOLECULE

  30   31
SMALL
USER_CHARGES
@<TRIPOS>ATOM
   1 C1           1.2925     1.2925    -0.4626 C.3          1    LIG   0.0000
   2 C2           1.0000     1.0000     1.0000 C.3          1    LIG   0.0000
   3 C3           1.8776     1.8776     1.8776 C.3          1    LIG   0.0000
   4 C4           3.3402     1.5850     1.5850 C.3          1    LIG   0.0000
   5 S5           1.5292     1.5292     3.6192 S.3          1    LIG   0.0000
   6 C6           2.6101     2.6101     4.4455 C.2          1    LIG   0.0000
   7 N7           3.5310     2.2617     5.2557 N.2          1    LIG   0.0000
   8 C8           4.3814     3.1572     5.9266 C.ar         1    LIG   0.0000
   9 C9           5.0449     2.6674     7.0455 C.ar         1    LIG   0.0000
  10 C10          5.9125     3.4805     7.7665 C.ar         1    LIG   0.0000
  11 C11          6.1225     4.7976     7.3708 C.ar         1    LIG   0.0000
  12 C12          5.4754     5.3221     6.2584 C.ar         1    LIG   0.0000
  13 C13          4.6156     4.4892     5.5586 C.ar         1    LIG   0.0000
  14 C14          3.9679     5.1641     4.3649 C.3          1    LIG   0.0000
  15 S15          2.3956     4.3041     4.1253 S.3          1    LIG   0.0000
  16 H            1.6851     2.8398     1.6851 H            1    LIG   0.0000
  17 H            0.7152     0.7152    -1.0400 H            1    LIG   0.0000
  18 H            1.1001     2.2548    -0.6551 H            1    LIG   0.0000
  19 H            2.2548     1.1001    -0.6551 H            1    LIG   0.0000
  20 H            0.0377     1.1925     1.1925 H            1    LIG   0.0000
  21 H            1.1925     0.0377     1.1925 H            1    LIG   0.0000
  22 H            3.5326     1.7775     0.6228 H            1    LIG   0.0000
  23 H            3.9175     2.1624     2.1624 H            1    LIG   0.0000
  24 H            3.5326     0.6228     1.7775 H            1    LIG   0.0000
  25 H            4.8969     1.7217     7.3347 H            1    LIG   0.0000
  26 H            6.3856     3.1184     8.5696 H            1    LIG   0.0000
  27 H            6.7484     5.3754     7.8946 H            1    LIG   0.0000
  28 H            5.6249     6.2686     5.9722 H            1    LIG   0.0000
  29 H            3.8116     6.1338     4.5530 H            1    LIG   0.0000
  30 H            4.5453     5.0707     3.5538 H            1    LIG   0.0000
@<TRIPOS>BOND
   1        1        2 1
   2        2        3 1
   3        3        4 1
   4        3        5 1
   5        5        6 1
   6        6        7 2
   7        7        8 1
   8        8        9 ar
   9        9       10 ar
  10       10       11 ar
  11       11       12 ar
  12       12       13 ar
  13       13        8 ar
  14       13       14 1
  15       14       15 1
  16       15        6 1
  17        3       16 1
  18        1       17 1
  19        1       18 1
  20        1       19 1
  21        2       20 1
  22        2       21 1
  23        4       22 1
  24        4       23 1
  25        4       24 1
  26        9       25 1
  27       10       26 1
  28       11       27 1
  29       12       28 1
  30       14       29 1
  31       14       30 1

@<TRIPOS>MOLECULE

  30   31
SMALL
USER_CHARGES
@<TRIPOS>ATOM
   1 C1           1.2925     1.2925    -0.4626 C.3          1    LIG   0.0000
   2 C2           1.0000     1.0000     1.0000 C.3          1    LIG   0.0000
   3 C3           1.8776     1.8776     1.8776 C.3          1    LIG   0.0000
   4 C4           3.3402     1.5850     1.5850 C.3          1    LIG   0.0000
   5 S5           1.5292     1.5292     3.6192 S.3          1    LIG   0.0000
   6 C6          -0.0651     2.1884     3.8261 C.2          1    LIG   0.0000
   7 N7          -0.7528     2.7638     2.9196 N.2          1    LIG   0.0000
   8 C8          -2.0344     3.3060     3.1167 C.ar         1    LIG   0.0000
   9 C9          -2.4743     4.2258     2.1720 C.ar         1    LIG   0.0000
  10 C10         -3.7326     4.8074     2.2825 C.ar         1    LIG   0.0000
  11 C11         -4.5638     4.4711     3.3461 C.ar         1    LIG   0.0000
  12 C12         -4.1572     3.5567     4.3104 C.ar         1    LIG   0.0000
  13 C13         -2.8975     2.9928     4.1756 C.ar         1    LIG   0.0000
  14 C14         -2.5605     2.0098     5.2802 C.3          1    LIG   0.0000
  15 S15         -0.7575     2.0404     5.4126 S.3          1    LIG   0.0000
  16 H            1.6851     2.8398     1.6851 H            1    LIG   0.0000
  17 H            0.7152     0.7152    -1.0400 H            1    LIG   0.0000
  18 H            1.1001     2.2548    -0.6551 H            1    LIG   0.0000
  19 H            2.2548     1.1001    -0.6551 H            1    LIG   0.0000
  20 H            0.0377     1.1925     1.1925 H            1    LIG   0.0000
  21 H            1.1925     0.0377     1.1925 H            1    LIG   0.0000
  22 H            3.5326     1.7775     0.6228 H            1    LIG   0.0000
  23 H            3.9175     2.1624     2.1624 H            1    LIG   0.0000
  24 H            3.5326     0.6228     1.7775 H            1    LIG   0.0000
  25 H           -1.8805     4.4716     1.4059 H            1    LIG   0.0000
  26 H           -4.0401     5.4675     1.5971 H            1    LIG   0.0000
  27 H           -5.4673     4.8937     3.4179 H            1    LIG   0.0000
  28 H           -4.7530     3.3135     5.0758 H            1    LIG   0.0000
  29 H           -2.9799     2.2943     6.1422 H            1    LIG   0.0000
  30 H           -2.8786     1.0922     5.0416 H            1    LIG   0.0000
@<TRIPOS>BOND
   1        1        2 1
   2        2        3 1
   3        3        4 1
   4        3        5 1
   5        5        6 1
   6        6        7 2
   7        7        8 1
   8        8        9 ar
   9        9       10 ar
  10       10       11 ar
  11       11       12 ar
  12       12       13 ar
  13       13        8 ar
  14       13       14 1
  15       14       15 1
  16       15        6 1
  17        3       16 1
  18        1       17 1
  19        1       18 1
  20        1       19 1
  21        2       20 1
  22        2       21 1
  23        4       22 1
  24        4       23 1
  25        4       24 1
  26        9       25 1
  27       10       26 1
  28       11       27 1
  29       12       28 1
  30       14       29 1
  31       14       30 1

@<TRIPOS>MOLECULE

  30   31
SMALL
USER_CHARGES
@<TRIPOS>ATOM
   1 C1           1.2925     1.2925    -0.4626 C.3          1    LIG   0.0000
   2 C2           1.0000     1.0000     1.0000 C.3          1    LIG   0.0000
   3 C3           1.8776     1.8776     1.8776 C.3          1    LIG   0.0000
   4 C4           3.3402     1.5850     1.5850 C.3          1    LIG   0.0000
   5 S5           1.5292     1.5292     3.6192 S.3          1    LIG   0.0000
   6 C6          -0.0651     2.1884     3.8261 C.2          1    LIG   0.0000
   7 N7          -0.7378     2.1756     4.9092 N.2          1    LIG   0.0000
   8 C8          -2.0347     2.6995     5.0467 C.ar         1    LIG   0.0000
   9 C9          -2.7695     2.2653     6.1438 C.ar         1    LIG   0.0000
  10 C10         -4.0590     2.7371     6.3640 C.ar         1    LIG   0.0000
  11 C11         -4.6256     3.6513     5.4817 C.ar         1    LIG   0.0000
  12 C12         -3.9217     4.1066     4.3733 C.ar         1    LIG   0.0000
  13 C13         -2.6383     3.6190     4.1781 C.ar         1    LIG   0.0000
  14 C14         -1.9648     4.1843     2.9424 C.3          1    LIG   0.0000
  15 S15         -0.7821     2.9192     2.4226 S.3          1    LIG   0.0000
  16 H            1.6851     2.8398     1.6851 H            1    LIG   0.0000
  17 H            0.7152     0.7152    -1.0400 H            1    LIG   0.0000
  18 H            1.1001     2.2548    -0.6551 H            1    LIG   0.0000
  19 H            2.2548     1.1001    -0.6551 H            1    LIG   0.0000
  20 H            0.0377     1.1925     1.1925 H            1    LIG   0.0000
  21 H            1.1925     0.0377     1.1925 H            1    LIG   0.0000
  22 H            3.5326     1.7775     0.6228 H            1    LIG   0.0000
  23 H            3.9175     2.1624     2.1624 H            1    LIG   0.0000
  24 H            3.5326     0.6228     1.7775 H            1    LIG   0.0000
  25 H           -2.3671     1.6076     6.7807 H            1    LIG   0.0000
  26 H           -4.5791     2.4191     7.1567 H            1    LIG   0.0000
  27 H           -5.5533     3.9859     5.6475 H            1    LIG   0.0000
  28 H           -4.3270     4.7637     3.7378 H            1    LIG   0.0000
  29 H           -2.6380     4.3515     2.2221 H            1    LIG   0.0000
  30 H           -1.4914     5.0376     3.1609 H            1    LIG   0.0000
@<TRIPOS>BOND
   1        1        2 1
   2        2        3 1
   3        3        4 1
   4        3        5 1
   5        5        6 1
   6        6        7 2
   7        7        8 1
   8        8        9 ar
   9        9       10 ar
  10       10       11 ar
  11       11       12 ar
  12       12       13 ar
  13       13        8 ar
  14       13       14 1
  15       14       15 1
  16       15        6 1
  17        3       16 1
  18        1       17 1
  19        1       18 1
  20        1       19 1
  21        2       20 1
  22        2       21 1
  23        4       22 1
  24        4       23 1
  25        4       24 1
  26        9       25 1
  27       10       26 1
  28       11       27 1
  29       12       28 1
  30       14       29 1
  31       14       30 1

@<TRIPOS>MOLECULE

  30   31
SMALL
USER_CHARGES
@<TRIPOS>ATOM
   1 C1           1.2925     1.2925    -0.4626 C.3          1    LIG   0.0000
   2 C2           1.0000     1.0000     1.0000 C.3          1    LIG   0.0000
   3 C3           1.8776     1.8776     1.8776 C.3          1    LIG   0.0000
   4 C4           3.3402     1.5850     1.5850 C.3          1    LIG   0.0000
   5 S5           1.5292     1.5292     3.6192 S.3          1    LIG   0.0000
   6 C6          -0.0651     2.1884     3.8261 C.2          1    LIG   0.0000
   7 N7          -0.3844     3.1139     4.6431 N.2          1    LIG   0.0000
   8 C8          -1.6863     3.6179     4.8052 C.ar         1    LIG   0.0000
   9 C9          -1.9422     4.3183     5.9783 C.ar         1    LIG   0.0000
  10 C10         -3.2002     4.8595     6.2198 C.ar         1    LIG   0.0000
  11 C11         -4.2171     4.7016     5.2837 C.ar         1    LIG   0.0000
  12 C12         -3.9985     4.0062     4.1004 C.ar         1    LIG   0.0000
  13 C13         -2.7349     3.4769     3.8861 C.ar         1    LIG   0.0000
  14 C14         -2.6099     2.7425     2.5650 C.3          1    LIG   0.0000
  15 S15         -1.3125     1.5103     2.8249 S.3          1    LIG   0.0000
  16 H            1.6851     2.8398     1.6851 H            1    LIG   0.0000
  17 H            0.7152     0.7152    -1.0400 H            1    LIG   0.0000
  18 H            1.1001     2.2548    -0.6551 H            1    LIG   0.0000
  19 H            2.2548     1.1001    -0.6551 H            1    LIG   0.0000
  20 H            0.0377     1.1925     1.1925 H            1    LIG   0.0000
  21 H            1.1925     0.0377     1.1925 H            1    LIG   0.0000
  22 H            3.5326     1.7775     0.6228 H            1    LIG   0.0000
  23 H            3.9175     2.1624     2.1624 H            1    LIG   0.0000
  24 H            3.5326     0.6228     1.7775 H            1    LIG   0.0000
  25 H           -1.2149     4.4340     6.6548 H            1    LIG   0.0000
  26 H           -3.3739     5.3623     7.0665 H            1    LIG   0.0000
  27 H           -5.1187     5.0943     5.4649 H            1    LIG   0.0000
  28 H           -4.7281     3.8915     3.4262 H            1    LIG   0.0000
  29 H           -3.4735     2.2973     2.3287 H            1    LIG   0.0000
  30 H           -2.3506     3.3756     1.8356 H            1    LIG   0.0000
@<TRIPOS>BOND
   1        1        2 1
   2        2        3 1
   3        3        4 1
   4        3        5 1
   5        5        6 1
   6        6        7 2
   7        7        8 1
   8        8        9 ar
   9        9       10 ar
  10       10       11 ar
  11       11       12 ar
  12       12       13 ar
  13       13        8 ar
  14       13       14 1
  15       14       15 1
  16       15        6 1
  17        3       16 1
  18        1       17 1
  19        1       18 1
  20        1       19 1
  21        2       20 1
  22        2       21 1
  23        4       22 1
  24        4       23 1
  25        4       24 1
  26        9       25 1
  27       10       26 1
  28       11       27 1
  29       12       28 1
  30       14       29 1
  31       14       30 1

@<TRIPOS>MOLECULE

  30   31
SMALL
USER_CHARGES
@<TRIPOS>ATOM
   1 C1           1.2925     1.2925    -0.4626 C.3          1    LIG   0.0000
   2 C2           1.0000     1.0000     1.0000 C.3          1    LIG   0.0000
   3 C3           1.8776     1.8776     1.8776 C.3          1    LIG   0.0000
   4 C4           3.3402     1.5850     1.5850 C.3          1    LIG   0.0000
   5 S5           1.5292     1.5292     3.6192 S.3          1    LIG   0.0000
   6 C6          -0.0651     2.1884     3.8261 C.2          1    LIG   0.0000
   7 N7          -1.0987     1.5313     4.1806 N.2          1    LIG   0.0000
   8 C8          -2.3830     2.0843     4.3232 C.ar         1    LIG   0.0000
   9 C9          -3.4492     1.1926     4.3235 C.ar         1    LIG   0.0000
  10 C10         -4.7546     1.6499     4.4674 C.ar         1    LIG   0.0000
  11 C11         -5.0033     3.0110     4.6119 C.ar         1    LIG   0.0000
  12 C12         -3.9625     3.9320     4.6147 C.ar         1    LIG   0.0000
  13 C13         -2.6712     3.4481     4.4689 C.ar         1    LIG   0.0000
  14 C14         -1.6176     4.5387     4.4887 C.3          1    LIG   0.0000
  15 S15         -0.2395     3.8888     3.5152 S.3          1    LIG   0.0000
  16 H            1.6851     2.8398     1.6851 H            1    LIG   0.0000
  17 H            0.7152     0.7152    -1.0400 H            1    LIG   0.0000
  18 H            1.1001     2.2548    -0.6551 H            1    LIG   0.0000
  19 H            2.2548     1.1001    -0.6551 H            1    LIG   0.0000
  20 H            0.0377     1.1925     1.1925 H            1    LIG   0.0000
  21 H            1.1925     0.0377     1.1925 H            1    LIG   0.0000
  22 H            3.5326     1.7775     0.6228 H            1    LIG   0.0000
  23 H            3.9175     2.1624     2.1624 H            1    LIG   0.0000
  24 H            3.5326     0.6228     1.7775 H            1    LIG   0.0000
  25 H           -3.2761     0.2132     4.2191 H            1    LIG   0.0000
  26 H           -5.5148     1.0001     4.4671 H            1    LIG   0.0000
  27 H           -5.9449     3.3314     4.7153 H            1    LIG   0.0000
  28 H           -4.1390     4.9108     4.7185 H            1    LIG   0.0000
  29 H           -1.9735     5.3771     4.0756 H            1    LIG   0.0000
  30 H           -1.3259     4.7270     5.4265 H            1    LIG   0.0000
@<TRIPOS>BOND
   1        1        2 1
   2        2        3 1
   3        3        4 1
   4        3        5 1
   5        5        6 1
   6        6        7 2
   7        7        8 1
   8        8        9 ar
   9        9       10 ar
  10       10       11 ar
  11       11       12 ar
  12       12       13 ar
  13       13        8 ar
  14       13       14 1
  15       14       15 1
  16       15        6 1
  17        3       16 1
  18        1       17 1
  19        1       18 1
  20        1       19 1
  21        2       20 1
  22        2       21 1
  23        4       22 1
  24        4       23 1
  25        4       24 1
  26        9       25 1
  27       10       26 1
  28       11       27 1
  29       12       28 1
  30       14       29 1
  31       14       30 1

@<TRIPOS>MOLECULE

  30   31
SMALL
USER_CHARGES
@<TRIPOS>ATOM
   1 C1           1.2925     1.2925    -0.4626 C.3          1    LIG   0.0000
   2 C2           1.0000     1.0000     1.0000 C.3          1    LIG   0.0000
   3 C3           1.8776     1.8776     1.8776 C.3          1    LIG   0.0000
   4 C4           3.3402     1.5850     1.5850 C.3          1    LIG   0.0000
   5 S5           1.5292     1.5292     3.6192 S.3          1    LIG   0.0000
   6 C6           2.1884    -0.0651     3.8261 C.2          1    LIG   0.0000
   7 N7           2.7607    -0.7542     2.9187 N.2          1    LIG   0.0000
   8 C8           3.2699    -2.0507     3.1062 C.ar         1    LIG   0.0000
   9 C9           3.4951    -2.8039     1.9599 C.ar         1    LIG   0.0000
  10 C10          4.0052    -4.0945     2.0496 C.ar         1    LIG   0.0000
  11 C11          4.2942    -4.6436     3.2947 C.ar         1    LIG   0.0000
  12 C12          4.0804    -3.9209     4.4624 C.ar         1    LIG   0.0000
  13 C13          3.5705    -2.6369     4.3432 C.ar         1    LIG   0.0000
  14 C14          3.3802    -1.9423     5.6779 C.3          1    LIG   0.0000
  15 S15          2.0404    -0.7575     5.4126 S.3          1    LIG   0.0000
  16 H            1.6851     2.8398     1.6851 H            1    LIG   0.0000
  17 H            0.7152     0.7152    -1.0400 H            1    LIG   0.0000
  18 H            1.1001     2.2548    -0.6551 H            1    LIG   0.0000
  19 H            2.2548     1.1001    -0.6551 H            1    LIG   0.0000
  20 H            0.0377     1.1925     1.1925 H            1    LIG   0.0000
  21 H            1.1925     0.0377     1.1925 H            1    LIG   0.0000
  22 H            3.5326     1.7775     0.6228 H            1    LIG   0.0000
  23 H            3.9175     2.1624     2.1624 H            1    LIG   0.0000
  24 H            3.5326     0.6228     1.7775 H            1    LIG   0.0000
  25 H            3.2884    -2.4142     1.0625 H            1    LIG   0.0000
  26 H            4.1644    -4.6279     1.2189 H            1    LIG   0.0000
  27 H            4.6611    -5.5722     3.3504 H            1    LIG   0.0000
  28 H            4.2873    -4.3137     5.3584 H            1    LIG   0.0000
  29 H            3.1281    -2.6037     6.3842 H            1    LIG   0.0000
  30 H            4.2182    -1.4685     5.9488 H            1    LIG   0.0000
@<TRIPOS>BOND
   1        1        2 1
   2        2        3 1
   3        3        4 1
   4        3        5 1
   5        5        6 1
   6        6        7 2
   7        7        8 1
   8        8        9 ar
   9        9       10 ar
  10       10       11 ar
  11       11       12 ar
  12       12       13 ar
  13       13        8 ar
  14       13       14 1
  15       14       15 1
  16       15        6 1
  17        3       16 1
  18        1       17 1
  19        1       18 1
  20        1       19 1
  21        2       20 1
  22        2       21 1
  23        4       22 1
  24        4       23 1
  25        4       24 1
  26        9       25 1
  27       10       26 1
  28       11       27 1
  29       12       28 1
  30       14       29 1
  31       14       30 1

@<TRIPOS>MOLECULE

  30   31
SMALL
USER_CHARGES
@<TRIPOS>ATOM
   1 C1           1.2925     1.2925    -0.4626 C.3          1    LIG   0.0000
   2 C2           1.0000     1.0000     1.0000 C.3          1    LIG   0.0000
   3 C3           1.8776     1.8776     1.8776 C.3          1    LIG   0.0000
   4 C4           3.3402     1.5850     1.5850 C.3          1    LIG   0.0000
   5 S5           1.5292     1.5292     3.6192 S.3          1    LIG   0.0000
   6 C6           2.1884    -0.0651     3.8261 C.2          1    LIG   0.0000
   7 N7           3.1163    -0.3837     4.6406 N.2          1    LIG   0.0000
   8 C8           3.6460    -1.6785     4.7764 C.ar         1    LIG   0.0000
   9 C9           4.8861    -1.7830     5.3954 C.ar         1    LIG   0.0000
  10 C10          5.4829    -3.0255     5.5799 C.ar         1    LIG   0.0000
  11 C11          4.8391    -4.1785     5.1425 C.ar         1    LIG   0.0000
  12 C12          3.5993    -4.1126     4.5182 C.ar         1    LIG   0.0000
  13 C13          3.0279    -2.8608     4.3470 C.ar         1    LIG   0.0000
  14 C14          1.6775    -2.9083     3.6583 C.3          1    LIG   0.0000
  15 S15          1.5103    -1.3125     2.8249 S.3          1    LIG   0.0000
  16 H            1.6851     2.8398     1.6851 H            1    LIG   0.0000
  17 H            0.7152     0.7152    -1.0400 H            1    LIG   0.0000
  18 H            1.1001     2.2548    -0.6551 H            1    LIG   0.0000
  19 H            2.2548     1.1001    -0.6551 H            1    LIG   0.0000
  20 H            0.0377     1.1925     1.1925 H            1    LIG   0.0000
  21 H            1.1925     0.0377     1.1925 H            1    LIG   0.0000
  22 H            3.5326     1.7775     0.6228 H            1    LIG   0.0000
  23 H            3.9175     2.1624     2.1624 H            1    LIG   0.0000
  24 H            3.5326     0.6228     1.7775 H            1    LIG   0.0000
  25 H            5.3535    -0.9572     5.7110 H            1    LIG   0.0000
  26 H            6.3750    -3.0901     6.0270 H            1    LIG   0.0000
  27 H            5.2750    -5.0681     5.2794 H            1    LIG   0.0000
  28 H            3.1347    -4.9402     4.2030 H            1    LIG   0.0000
  29 H            1.6493    -3.6551     2.9938 H            1    LIG   0.0000
  30 H            0.9463    -3.0314     4.3292 H            1    LIG   0.0000
@<TRIPOS>BOND
   1        1        2 1
   2        2        3 1
   3        3        4 1
   4        3        5 1
   5        5        6 1
   6        6        7 2
   7        7        8 1
   8        8        9 ar
   9        9       10 ar
  10       10       11 ar
  11       11       12 ar
  12       12       13 ar
  13       13        8 ar
  14       13       14 1
  15       14       15 1
  16       15        6 1
  17        3       16 1
  18        1       17 1
  19        1       18 1
  20        1       19 1
  21        2       20 1
  22        2       21 1
  23        4       22 1
  24        4       23 1
  25        4       24 1
  26        9       25 1
  27       10       26 1
  28       11       27 1
  29       12       28 1
  30       14       29 1
  31       14       30 1

@<TRIPOS>MOLECULE

  30   31
SMALL
USER_CHARGES
@<TRIPOS>ATOM
   1 C1           1.2925     1.2925    -0.4626 C.3          1    LIG   0.0000
   2 C2           1.0000     1.0000     1.0000 C.3          1    LIG   0.0000
   3 C3           1.8776     1.8776     1.8776 C.3          1    LIG   0.0000
   4 C4           3.2306     1.2116     2.0681 C.3          1    LIG   0.0000
   5 S5           1.0846     2.1045     3.4887 S.3          1    LIG   0.0000
   6 C6          -0.2766     3.1215     3.1025 C.2          1    LIG   0.0000
   7 N7          -1.5107     2.8406     3.2901 N.2          1    LIG   0.0000
   8 C8          -2.5833     3.7028     2.9853 C.ar         1    LIG   0.0000
   9 C9          -3.8133     3.4454     3.5800 C.ar         1    LIG   0.0000
  10 C10         -4.9136     4.2555     3.3141 C.ar         1    LIG   0.0000
  11 C11         -4.7895     5.3347     2.4467 C.ar         1    LIG   0.0000
  12 C12         -3.5760     5.6233     1.8333 C.ar         1    LIG   0.0000
  13 C13         -2.5038     4.8014     2.1163 C.ar         1    LIG   0.0000
  14 C14         -1.2708     5.2557     1.3660 C.3          1    LIG   0.0000
  15 S15          0.0863     4.6672     2.4016 S.3          1    LIG   0.0000
  16 H            2.0029     2.7677     1.4394 H            1    LIG   0.0000
  17 H            0.7152     0.7152    -1.0400 H            1    LIG   0.0000
  18 H            1.1001     2.2548    -0.6551 H            1    LIG   0.0000
  19 H            2.2548     1.1001    -0.6551 H            1    LIG   0.0000
  20 H            0.0377     1.1925     1.1925 H            1    LIG   0.0000
  21 H            1.1925     0.0377     1.1925 H            1    LIG   0.0000
  22 H            3.6687     1.0863     1.1780 H            1    LIG   0.0000
  23 H            3.8079     1.7890     2.6455 H            1    LIG   0.0000
  24 H            3.1052     0.3215     2.5062 H            1    LIG   0.0000
  25 H           -3.9086     2.6705     4.2050 H            1    LIG   0.0000
  26 H           -5.7937     4.0610     3.7472 H            1    LIG   0.0000
  27 H           -5.5849     5.9119     2.2614 H            1    LIG   0.0000
  28 H           -3.4831     6.3989     1.2090 H            1    LIG   0.0000
  29 H           -1.2324     4.8423     0.4563 H            1    LIG   0.0000
  30 H           -1.2502     6.2518     1.2806 H            1    LIG   0.0000
@<TRIPOS>BOND
   1        1        2 1
   2        2        3 1
   3        3        4 1
   4        3        5 1
   5        5        6 1
   6        6        7 2
   7        7        8 1
   8        8        9 ar
   9        9       10 ar
  10       10       11 ar
  11       11       12 ar
  12       12       13 ar
  13       13        8 ar
  14       13       14 1
  15       14       15 1
  16       15        6 1
  17        3       16 1
  18        1       17 1
  19        1       18 1
  20        1       19 1
  21        2       20 1
  22        2       21 1
  23        4       22 1
  24        4       23 1
  25        4       24 1
  26        9       25 1
  27       10       26 1
  28       11       27 1
  29       12       28 1
  30       14       29 1
  31       14       30 1

@<TRIPOS>MOLECULE

  30   31
SMALL
USER_CHARGES
@<TRIPOS>ATOM
   1 C1           1.2925     1.2925    -0.4626 C.3          1    LIG   0.0000
   2 C2           1.0000     1.0000     1.0000 C.3          1    LIG   0.0000
   3 C3           1.8776     1.8776     1.8776 C.3          1    LIG   0.0000
   4 C4           3.2306     1.2116     2.0681 C.3          1    LIG   0.0000
   5 S5           1.0846     2.1045     3.4887 S.3          1    LIG   0.0000
   6 C6           1.2201     0.5219     4.2053 C.2          1    LIG   0.0000
   7 N7           1.7640    -0.5072     3.6742 N.2          1    LIG   0.0000
   8 C8           1.8748    -1.7661     4.2983 C.ar         1    LIG   0.0000
   9 C9           2.8046    -2.6649     3.7880 C.ar         1    LIG   0.0000
  10 C10          2.9572    -3.9269     4.3552 C.ar         1    LIG   0.0000
  11 C11          2.1761    -4.2998     5.4430 C.ar         1    LIG   0.0000
  12 C12          1.2360    -3.4282     5.9805 C.ar         1    LIG   0.0000
  13 C13          1.1076    -2.1845     5.3960 C.ar         1    LIG   0.0000
  14 C14          0.0440    -1.3710     6.1006 C.3          1    LIG   0.0000
  15 S15          0.5559     0.3339     5.7977 S.3          1    LIG   0.0000
  16 H            2.0029     2.7677     1.4394 H            1    LIG   0.0000
  17 H            0.7152     0.7152    -1.0400 H            1    LIG   0.0000
  18 H            1.1001     2.2548    -0.6551 H            1    LIG   0.0000
  19 H            2.2548     1.1001    -0.6551 H            1    LIG   0.0000
  20 H            0.0377     1.1925     1.1925 H            1    LIG   0.0000
  21 H            1.1925     0.0377     1.1925 H            1    LIG   0.0000
  22 H            3.6687     1.0863     1.1780 H            1    LIG   0.0000
  23 H            3.8079     1.7890     2.6455 H            1    LIG   0.0000
  24 H            3.1052     0.3215     2.5062 H            1    LIG   0.0000
  25 H            3.3694    -2.4023     3.0057 H            1    LIG   0.0000
  26 H            3.6289    -4.5656     3.9799 H            1    LIG   0.0000
  27 H            2.2922    -5.2082     5.8447 H            1    LIG   0.0000
  28 H            0.6726    -3.6930     6.7631 H            1    LIG   0.0000
  29 H           -0.8596    -1.5483     5.7106 H            1    LIG   0.0000
  30 H            0.0296    -1.5720     7.0801 H            1    LIG   0.0000
@<TRIPOS>BOND
   1        1        2 1
   2        2        3 1
   3        3        4 1
   4        3        5 1
   5        5        6 1
   6        6        7 2
   7        7        8 1
   8        8        9 ar
   9        9       10 ar
  10       10       11 ar
  11       11       12 ar
  12       12       13 ar
  13       13        8 ar
  14       13       14 1
  15       14       15 1
  16       15        6 1
  17        3       16 1
  18        1       17 1
  19        1       18 1
  20        1       19 1
  21        2       20 1
  22        2       21 1
  23        4       22 1
  24        4       23 1
  25        4       24 1
  26        9       25 1
  27       10       26 1
  28       11       27 1
  29       12       28 1
  30       14       29 1
  31       14       30 1

@<TRIPOS>MOLECULE

  30   31
SMALL
USER_CHARGES
@<TRIPOS>ATOM
   1 C1           1.2925     1.2925    -0.4626 C.3          1    LIG   0.0000
   2 C2           1.0000     1.0000     1.0000 C.3          1    LIG   0.0000
   3 C3           1.8776     1.8776     1.8776 C.3          1    LIG   0.0000
   4 C4           3.2306     1.2116     2.0681 C.3          1    LIG   0.0000
   5 S5           1.0846     2.1045     3.4887 S.3          1    LIG   0.0000
   6 C6           1.2201     0.5219     4.2053 C.2          1    LIG   0.0000
   7 N7           1.8210     0.2327     5.2973 N.2          1    LIG   0.0000
   8 C8           1.8875    -1.0593     5.8565 C.ar         1    LIG   0.0000
   9 C9           2.2233    -1.1691     7.2012 C.ar         1    LIG   0.0000
  10 C10          2.3128    -2.4173     7.8108 C.ar         1    LIG   0.0000
  11 C11          2.0651    -3.5703     7.0748 C.ar         1    LIG   0.0000
  12 C12          1.7269    -3.5004     5.7283 C.ar         1    LIG   0.0000
  13 C13          1.6469    -2.2487     5.1521 C.ar         1    LIG   0.0000
  14 C14          1.2726    -2.3573     3.6900 C.3          1    LIG   0.0000
  15 S15          0.4571    -0.7823     3.3516 S.3          1    LIG   0.0000
  16 H            2.0029     2.7677     1.4394 H            1    LIG   0.0000
  17 H            0.7152     0.7152    -1.0400 H            1    LIG   0.0000
  18 H            1.1001     2.2548    -0.6551 H            1    LIG   0.0000
  19 H            2.2548     1.1001    -0.6551 H            1    LIG   0.0000
  20 H            0.0377     1.1925     1.1925 H            1    LIG   0.0000
  21 H            1.1925     0.0377     1.1925 H            1    LIG   0.0000
  22 H            3.6687     1.0863     1.1780 H            1    LIG   0.0000
  23 H            3.8079     1.7890     2.6455 H            1    LIG   0.0000
  24 H            3.1052     0.3215     2.5062 H            1    LIG   0.0000
  25 H            2.4024    -0.3431     7.7357 H            1    LIG   0.0000
  26 H            2.5553    -2.4846     8.7786 H            1    LIG   0.0000
  27 H            2.1313    -4.4631     7.5205 H            1    LIG   0.0000
  28 H            1.5479    -4.3277     5.1959 H            1    LIG   0.0000
  29 H            2.0862    -2.4693     3.1194 H            1    LIG   0.0000
  30 H            0.6492    -3.1239     3.5359 H            1    LIG   0.0000
@<TRIPOS>BOND
   1        1        2 1
   2        2        3 1
   3        3        4 1
   4        3        5 1
   5        5        6 1
   6        6        7 2
   7        7        8 1
   8        8        9 ar
   9        9       10 ar
  10       10       11 ar
  11       11       12 ar
  12       12       13 ar
  13       13        8 ar
  14       13       14 1
  15       14       15 1
  16       15        6 1
  17        3       16 1
  18        1       17 1
  19        1       18 1
  20        1       19 1
  21        2       20 1
  22        2       21 1
  23        4       22 1
  24        4       23 1
  25        4       24 1
  26        9       25 1
  27       10       26 1
  28       11       27 1
  29       12       28 1
  30       14       29 1
  31       14       30 1

