@<TRIPOS>MOLECULE
*****
 30 31 0 0 0
SMALL
USER_CHARGES

@<TRIPOS>ATOM
      1 C1          1.2925    1.2925   -0.4626 C.3     1  LIG1        0.0000
      2 C2          1.0000    1.0000    1.0000 C.3     1  LIG1        0.0000
      3 C3          1.8776    1.8776    1.8776 C.3     1  LIG1        0.0000
      4 C4          3.2306    1.2116    2.0681 C.3     1  LIG1        0.0000
      5 S5          1.0846    2.1045    3.4887 S.3     1  LIG1        0.0000
      6 C6          1.2201    0.5219    4.2053 C.2     1  LIG1        0.0000
      7 N7          1.8210    0.2327    5.2973 N.2     1  LIG1        0.0000
      8 C8          1.8875   -1.0593    5.8565 C.ar    1  LIG1        0.0000
      9 C9          2.2233   -1.1691    7.2012 C.ar    1  LIG1        0.0000
     10 C10         2.3128   -2.4173    7.8108 C.ar    1  LIG1        0.0000
     11 C11         2.0651   -3.5703    7.0748 C.ar    1  LIG1        0.0000
     12 C12         1.7269   -3.5004    5.7283 C.ar    1  LIG1        0.0000
     13 C13         1.6469   -2.2487    5.1521 C.ar    1  LIG1        0.0000
     14 C14         1.2726   -2.3573    3.6900 C.3     1  LIG1        0.0000
     15 S15         0.4571   -0.7823    3.3516 S.3     1  LIG1        0.0000
     16 H           2.0029    2.7677    1.4394 H       1  LIG1        0.0000
     17 H           0.7152    0.7152   -1.0400 H       1  LIG1        0.0000
     18 H           1.1001    2.2548   -0.6551 H       1  LIG1        0.0000
     19 H           2.2548    1.1001   -0.6551 H       1  LIG1        0.0000
     20 H           0.0377    1.1925    1.1925 H       1  LIG1        0.0000
     21 H           1.1925    0.0377    1.1925 H       1  LIG1        0.0000
     22 H           3.6687    1.0863    1.1780 H       1  LIG1        0.0000
     23 H           3.8079    1.7890    2.6455 H       1  LIG1        0.0000
     24 H           3.1052    0.3215    2.5062 H       1  LIG1        0.0000
     25 H           2.4024   -0.3431    7.7357 H       1  LIG1        0.0000
     26 H           2.5553   -2.4846    8.7786 H       1  LIG1        0.0000
     27 H           2.1313   -4.4631    7.5205 H       1  LIG1        0.0000
     28 H           1.5479   -4.3277    5.1959 H       1  LIG1        0.0000
     29 H           2.0862   -2.4693    3.1194 H       1  LIG1        0.0000
     30 H           0.6492   -3.1239    3.5359 H       1  LIG1        0.0000
@<TRIPOS>BOND
     1     1     2    1
     2     2     3    1
     3     3     4    1
     4     3     5    1
     5     5     6    1
     6     6     7    2
     7     7     8    1
     8     8     9   ar
     9     9    10   ar
    10    10    11   ar
    11    11    12   ar
    12    12    13   ar
    13    13     8   ar
    14    13    14    1
    15    14    15    1
    16    15     6    1
    17     3    16    1
    18     1    17    1
    19     1    18    1
    20     1    19    1
    21     2    20    1
    22     2    21    1
    23     4    22    1
    24     4    23    1
    25     4    24    1
    26     9    25    1
    27    10    26    1
    28    11    27    1
    29    12    28    1
    30    14    29    1
    31    14    30    1
