@<TRIPOS>MOLECULE
*****
 30 31 0 0 0
SMALL
USER_CHARGES

@<TRIPOS>ATOM
      1 C1          1.2925    1.2925   -0.4626 C.3     1  LIG1        0.0000
      2 C2          1.0000    1.0000    1.0000 C.3     1  LIG1        0.0000
      3 C3          1.8776    1.8776    1.8776 C.3     1  LIG1        0.0000
      4 C4          3.3402    1.5850    1.5850 C.3     1  LIG1        0.0000
      5 S5          1.5292    1.5292    3.6192 S.3     1  LIG1        0.0000
      6 C6          2.6101    2.6101    4.4455 C.2     1  LIG1        0.0000
      7 N7          3.5310    2.2617    5.2557 N.2     1  LIG1        0.0000
      8 C8          4.3814    3.1572    5.9266 C.ar    1  LIG1        0.0000
      9 C9          5.0449    2.6674    7.0455 C.ar    1  LIG1        0.0000
     10 C10         5.9125    3.4805    7.7665 C.ar    1  LIG1        0.0000
     11 C11         6.1225    4.7976    7.3708 C.ar    1  LIG1        0.0000
     12 C12         5.4754    5.3221    6.2584 C.ar    1  LIG1        0.0000
     13 C13         4.6156    4.4892    5.5586 C.ar    1  LIG1        0.0000
     14 C14         3.9679    5.1641    4.3649 C.3     1  LIG1        0.0000
     15 S15         2.3956    4.3041    4.1253 S.3     1  LIG1        0.0000
     16 H           1.6851    2.8398    1.6851 H       1  LIG1        0.0000
     17 H           0.7152    0.7152   -1.0400 H       1  LIG1        0.0000
     18 H           1.1001    2.2548   -0.6551 H       1  LIG1        0.0000
     19 H           2.2548    1.1001   -0.6551 H       1  LIG1        0.0000
     20 H           0.0377    1.1925    1.1925 H       1  LIG1        0.0000
     21 H           1.1925    0.0377    1.1925 H       1  LIG1        0.0000
     22 H           3.5326    1.7775    0.6228 H       1  LIG1        0.0000
     23 H           3.9175    2.1624    2.1624 H       1  LIG1        0.0000
     24 H           3.5326    0.6228    1.7775 H       1  LIG1        0.0000
     25 H           4.8969    1.7217    7.3347 H       1  LIG1        0.0000
     26 H           6.3856    3.1184    8.5696 H       1  LIG1        0.0000
     27 H           6.7484    5.3754    7.8946 H       1  LIG1        0.0000
     28 H           5.6249    6.2686    5.9722 H       1  LIG1        0.0000
     29 H           3.8116    6.1338    4.5530 H       1  LIG1        0.0000
     30 H           4.5453    5.0707    3.5538 H       1  LIG1        0.0000
@<TRIPOS>BOND
     1     1     2    1
     2     2     3    1
     3     3     4    1
     4     3     5    1
     5     5     6    1
     6     6     7    2
     7     7     8    1
     8     8     9   ar
     9     9    10   ar
    10    10    11   ar
    11    11    12   ar
    12    12    13   ar
    13    13     8   ar
    14    13    14    1
    15    14    15    1
    16    15     6    1
    17     3    16    1
    18     1    17    1
    19     1    18    1
    20     1    19    1
    21     2    20    1
    22     2    21    1
    23     4    22    1
    24     4    23    1
    25     4    24    1
    26     9    25    1
    27    10    26    1
    28    11    27    1
    29    12    28    1
    30    14    29    1
    31    14    30    1
