@<TRIPOS>MOLECULE
*****
 30 31 0 0 0
SMALL
USER_CHARGES

@<TRIPOS>ATOM
      1 C1          1.2925    1.2925   -0.4626 C.3     1  LIG1        0.0000
      2 C2          1.0000    1.0000    1.0000 C.3     1  LIG1        0.0000
      3 C3          1.8776    1.8776    1.8776 C.3     1  LIG1        0.0000
      4 C4          3.3402    1.5850    1.5850 C.3     1  LIG1        0.0000
      5 S5          1.5292    1.5292    3.6192 S.3     1  LIG1        0.0000
      6 C6         -0.0651    2.1884    3.8261 C.2     1  LIG1        0.0000
      7 N7         -0.3844    3.1139    4.6431 N.2     1  LIG1        0.0000
      8 C8         -1.6863    3.6179    4.8052 C.ar    1  LIG1        0.0000
      9 C9         -1.9422    4.3183    5.9783 C.ar    1  LIG1        0.0000
     10 C10        -3.2002    4.8595    6.2198 C.ar    1  LIG1        0.0000
     11 C11        -4.2171    4.7016    5.2837 C.ar    1  LIG1        0.0000
     12 C12        -3.9985    4.0062    4.1004 C.ar    1  LIG1        0.0000
     13 C13        -2.7349    3.4769    3.8861 C.ar    1  LIG1        0.0000
     14 C14        -2.6099    2.7425    2.5650 C.3     1  LIG1        0.0000
     15 S15        -1.3125    1.5103    2.8249 S.3     1  LIG1        0.0000
     16 H           1.6851    2.8398    1.6851 H       1  LIG1        0.0000
     17 H           0.7152    0.7152   -1.0400 H       1  LIG1        0.0000
     18 H           1.1001    2.2548   -0.6551 H       1  LIG1        0.0000
     19 H           2.2548    1.1001   -0.6551 H       1  LIG1        0.0000
     20 H           0.0377    1.1925    1.1925 H       1  LIG1        0.0000
     21 H           1.1925    0.0377    1.1925 H       1  LIG1        0.0000
     22 H           3.5326    1.7775    0.6228 H       1  LIG1        0.0000
     23 H           3.9175    2.1624    2.1624 H       1  LIG1        0.0000
     24 H           3.5326    0.6228    1.7775 H       1  LIG1        0.0000
     25 H          -1.2149    4.4340    6.6548 H       1  LIG1        0.0000
     26 H          -3.3739    5.3623    7.0665 H       1  LIG1        0.0000
     27 H          -5.1187    5.0943    5.4649 H       1  LIG1        0.0000
     28 H          -4.7281    3.8915    3.4262 H       1  LIG1        0.0000
     29 H          -3.4735    2.2973    2.3287 H       1  LIG1        0.0000
     30 H          -2.3506    3.3756    1.8356 H       1  LIG1        0.0000
@<TRIPOS>BOND
     1     1     2    1
     2     2     3    1
     3     3     4    1
     4     3     5    1
     5     5     6    1
     6     6     7    2
     7     7     8    1
     8     8     9   ar
     9     9    10   ar
    10    10    11   ar
    11    11    12   ar
    12    12    13   ar
    13    13     8   ar
    14    13    14    1
    15    14    15    1
    16    15     6    1
    17     3    16    1
    18     1    17    1
    19     1    18    1
    20     1    19    1
    21     2    20    1
    22     2    21    1
    23     4    22    1
    24     4    23    1
    25     4    24    1
    26     9    25    1
    27    10    26    1
    28    11    27    1
    29    12    28    1
    30    14    29    1
    31    14    30    1
