@<TRIPOS>MOLECULE

  29   30
SMALL
USER_CHARGES
@<TRIPOS>ATOM
   1 C1          -1.0267     3.9638     0.0320 C.3          1    LIG   0.0000
   2 S2          -1.5443     2.2293     0.0302 S.3          1    LIG   0.0000
   3 C3          -0.0255     1.3800     0.0117 C.ar         1    LIG   0.0000
   4 C4          -0.0067    -0.0116     0.0055 C.ar         1    LIG   0.0000
   5 C5          -1.2308    -0.7896     0.0145 C.2          1    LIG   0.0000
   6 C6          -1.6525    -1.6216     1.0059 C.2          1    LIG   0.0000
   7 N7          -2.8411    -2.1324     0.5853 N.pl3        1    LIG   0.0000
   8 C8          -3.6551    -3.0778     1.3617 C.3          1    LIG   0.0000
   9 N9          -3.1469    -1.6522    -0.6006 N.2          1    LIG   0.0000
  10 C10         -2.2078    -0.8314    -1.0043 C.2          1    LIG   0.0000
  11 C11         -2.1745    -0.0656    -2.3185 C.3          1    LIG   0.0000
  12 C12          1.2109    -0.6835    -0.0095 C.ar         1    LIG   0.0000
  13 C13          2.4128     0.0159    -0.0184 C.ar         1    LIG   0.0000
  14 C14          2.3795     1.4063    -0.0121 C.ar         1    LIG   0.0000
  15 F15          3.5199     2.0913    -0.0207 F            1    LIG   0.0000
  16 C16          1.1694     2.0920     0.0026 C.ar         1    LIG   0.0000
  17 F17          1.1512     3.4217     0.0083 F            1    LIG   0.0000
  18 H           -1.8348     4.5527     0.0424 H            1    LIG   0.0000
  19 H           -0.4716     4.1451     0.8437 H            1    LIG   0.0000
  20 H           -0.4878     4.1517    -0.7892 H            1    LIG   0.0000
  21 H           -1.1842    -1.8174     1.8675 H            1    LIG   0.0000
  22 H           -3.1960    -3.2810     2.2265 H            1    LIG   0.0000
  23 H           -4.5505    -2.6728     1.5468 H            1    LIG   0.0000
  24 H           -3.7729    -3.9228     0.8401 H            1    LIG   0.0000
  25 H           -1.3408     0.4849    -2.3624 H            1    LIG   0.0000
  26 H           -2.1877    -0.7120    -3.0814 H            1    LIG   0.0000
  27 H           -2.9730     0.5336    -2.3754 H            1    LIG   0.0000
  28 H            1.2222    -1.6835    -0.0140 H            1    LIG   0.0000
  29 H            3.2856    -0.4721    -0.0291 H            1    LIG   0.0000
@<TRIPOS>BOND
   1        1        2 1
   2        2        3 1
   3        3        4 ar
   4        4        5 1
   5        5        6 2
   6        6        7 1
   7        7        8 1
   8        7        9 1
   9        9       10 2
  10       10        5 1
  11       10       11 1
  12        4       12 ar
  13       12       13 ar
  14       13       14 ar
  15       14       15 1
  16       14       16 ar
  17       16        3 ar
  18       16       17 1
  19        1       18 1
  20        1       19 1
  21        1       20 1
  22        6       21 1
  23        8       22 1
  24        8       23 1
  25        8       24 1
  26       11       25 1
  27       11       26 1
  28       11       27 1
  29       12       28 1
  30       13       29 1

@<TRIPOS>MOLECULE

  29   30
SMALL
USER_CHARGES
@<TRIPOS>ATOM
   1 C1          -1.8713     2.4150     1.8007 C.3          1    LIG   0.0000
   2 S2          -1.5443     2.2293     0.0302 S.3          1    LIG   0.0000
   3 C3          -0.0255     1.3800     0.0117 C.ar         1    LIG   0.0000
   4 C4          -0.0067    -0.0116     0.0055 C.ar         1    LIG   0.0000
   5 C5          -1.2308    -0.7896     0.0145 C.2          1    LIG   0.0000
   6 C6          -1.6525    -1.6216     1.0059 C.2          1    LIG   0.0000
   7 N7          -2.8411    -2.1324     0.5853 N.pl3        1    LIG   0.0000
   8 C8          -3.6551    -3.0778     1.3617 C.3          1    LIG   0.0000
   9 N9          -3.1469    -1.6522    -0.6006 N.2          1    LIG   0.0000
  10 C10         -2.2078    -0.8314    -1.0043 C.2          1    LIG   0.0000
  11 C11         -2.1745    -0.0656    -2.3185 C.3          1    LIG   0.0000
  12 C12          1.2109    -0.6835    -0.0095 C.ar         1    LIG   0.0000
  13 C13          2.4128     0.0159    -0.0184 C.ar         1    LIG   0.0000
  14 C14          2.3795     1.4063    -0.0121 C.ar         1    LIG   0.0000
  15 F15          3.5199     2.0913    -0.0207 F            1    LIG   0.0000
  16 C16          1.1694     2.0920     0.0026 C.ar         1    LIG   0.0000
  17 F17          1.1512     3.4217     0.0083 F            1    LIG   0.0000
  18 H           -2.7366     2.8991     1.9309 H            1    LIG   0.0000
  19 H           -1.9275     1.5116     2.2258 H            1    LIG   0.0000
  20 H           -1.1305     2.9369     2.2236 H            1    LIG   0.0000
  21 H           -1.1842    -1.8174     1.8675 H            1    LIG   0.0000
  22 H           -3.1960    -3.2810     2.2265 H            1    LIG   0.0000
  23 H           -4.5505    -2.6728     1.5468 H            1    LIG   0.0000
  24 H           -3.7729    -3.9228     0.8401 H            1    LIG   0.0000
  25 H           -1.3408     0.4849    -2.3624 H            1    LIG   0.0000
  26 H           -2.1877    -0.7120    -3.0814 H            1    LIG   0.0000
  27 H           -2.9730     0.5336    -2.3754 H            1    LIG   0.0000
  28 H            1.2222    -1.6835    -0.0140 H            1    LIG   0.0000
  29 H            3.2856    -0.4721    -0.0291 H            1    LIG   0.0000
@<TRIPOS>BOND
   1        1        2 1
   2        2        3 1
   3        3        4 ar
   4        4        5 1
   5        5        6 2
   6        6        7 1
   7        7        8 1
   8        7        9 1
   9        9       10 2
  10       10        5 1
  11       10       11 1
  12        4       12 ar
  13       12       13 ar
  14       13       14 ar
  15       14       15 1
  16       14       16 ar
  17       16        3 ar
  18       16       17 1
  19        1       18 1
  20        1       19 1
  21        1       20 1
  22        6       21 1
  23        8       22 1
  24        8       23 1
  25        8       24 1
  26       11       25 1
  27       11       26 1
  28       11       27 1
  29       12       28 1
  30       13       29 1

@<TRIPOS>MOLECULE

  29   30
SMALL
USER_CHARGES
@<TRIPOS>ATOM
   1 C1          -1.9064     2.4291    -1.7319 C.3          1    LIG   0.0000
   2 S2          -1.5443     2.2293     0.0302 S.3          1    LIG   0.0000
   3 C3          -0.0255     1.3800     0.0117 C.ar         1    LIG   0.0000
   4 C4          -0.0067    -0.0116     0.0055 C.ar         1    LIG   0.0000
   5 C5          -1.2308    -0.7896     0.0145 C.2          1    LIG   0.0000
   6 C6          -1.8483    -1.3124     1.1092 C.2          1    LIG   0.0000
   7 N7          -2.9518    -1.9575     0.6439 N.pl3        1    LIG   0.0000
   8 C8          -3.9182    -2.6623     1.4974 C.3          1    LIG   0.0000
   9 N9          -3.0223    -1.8490    -0.6653 N.2          1    LIG   0.0000
  10 C10         -2.0047    -1.1522    -1.1098 C.2          1    LIG   0.0000
  11 C11         -1.7111    -0.7974    -2.5597 C.3          1    LIG   0.0000
  12 C12          1.2109    -0.6835    -0.0095 C.ar         1    LIG   0.0000
  13 C13          2.4128     0.0159    -0.0184 C.ar         1    LIG   0.0000
  14 C14          2.3795     1.4063    -0.0121 C.ar         1    LIG   0.0000
  15 F15          3.5199     2.0913    -0.0207 F            1    LIG   0.0000
  16 C16          1.1694     2.0920     0.0026 C.ar         1    LIG   0.0000
  17 F17          1.1512     3.4217     0.0083 F            1    LIG   0.0000
  18 H           -2.7741     2.9141    -1.8410 H            1    LIG   0.0000
  19 H           -1.1741     2.9544    -2.1653 H            1    LIG   0.0000
  20 H           -1.9712     1.5291    -2.1630 H            1    LIG   0.0000
  21 H           -1.5514    -1.2374     2.0611 H            1    LIG   0.0000
  22 H           -3.6311    -2.5938     2.4528 H            1    LIG   0.0000
  23 H           -4.8219    -2.2476     1.3903 H            1    LIG   0.0000
  24 H           -3.9594    -3.6249     1.2298 H            1    LIG   0.0000
  25 H           -0.8700    -0.2587    -2.6073 H            1    LIG   0.0000
  26 H           -1.6002    -1.6365    -3.0923 H            1    LIG   0.0000
  27 H           -2.4703    -0.2639    -2.9326 H            1    LIG   0.0000
  28 H            1.2222    -1.6835    -0.0140 H            1    LIG   0.0000
  29 H            3.2856    -0.4721    -0.0291 H            1    LIG   0.0000
@<TRIPOS>BOND
   1        1        2 1
   2        2        3 1
   3        3        4 ar
   4        4        5 1
   5        5        6 2
   6        6        7 1
   7        7        8 1
   8        7        9 1
   9        9       10 2
  10       10        5 1
  11       10       11 1
  12        4       12 ar
  13       12       13 ar
  14       13       14 ar
  15       14       15 1
  16       14       16 ar
  17       16        3 ar
  18       16       17 1
  19        1       18 1
  20        1       19 1
  21        1       20 1
  22        6       21 1
  23        8       22 1
  24        8       23 1
  25        8       24 1
  26       11       25 1
  27       11       26 1
  28       11       27 1
  29       12       28 1
  30       13       29 1

@<TRIPOS>MOLECULE

  29   30
SMALL
USER_CHARGES
@<TRIPOS>ATOM
   1 C1          -1.0267     3.9638     0.0320 C.3          1    LIG   0.0000
   2 S2          -1.5443     2.2293     0.0302 S.3          1    LIG   0.0000
   3 C3          -0.0255     1.3800     0.0117 C.ar         1    LIG   0.0000
   4 C4          -0.0067    -0.0116     0.0055 C.ar         1    LIG   0.0000
   5 C5          -1.2308    -0.7896     0.0145 C.2          1    LIG   0.0000
   6 C6          -1.6770    -1.6060    -0.9790 C.2          1    LIG   0.0000
   7 N7          -2.8552    -2.1232    -0.5376 N.pl3        1    LIG   0.0000
   8 C8          -3.6796    -3.0702    -1.3010 C.3          1    LIG   0.0000
   9 N9          -3.1341    -1.6577     0.6608 N.2          1    LIG   0.0000
  10 C10         -2.1871    -0.8402     1.0525 C.2          1    LIG   0.0000
  11 C11         -2.1251    -0.0891     2.3740 C.3          1    LIG   0.0000
  12 C12          1.2109    -0.6835    -0.0095 C.ar         1    LIG   0.0000
  13 C13          2.4128     0.0159    -0.0184 C.ar         1    LIG   0.0000
  14 C14          2.3795     1.4063    -0.0121 C.ar         1    LIG   0.0000
  15 F15          3.5199     2.0913    -0.0207 F            1    LIG   0.0000
  16 C16          1.1694     2.0920     0.0026 C.ar         1    LIG   0.0000
  17 F17          1.1512     3.4217     0.0083 F            1    LIG   0.0000
  18 H           -1.8348     4.5527     0.0424 H            1    LIG   0.0000
  19 H           -0.4716     4.1451     0.8437 H            1    LIG   0.0000
  20 H           -0.4878     4.1517    -0.7892 H            1    LIG   0.0000
  21 H           -1.2300    -1.7884    -1.8548 H            1    LIG   0.0000
  22 H           -3.2417    -3.2601    -2.1797 H            1    LIG   0.0000
  23 H           -3.7741    -3.9214    -0.7847 H            1    LIG   0.0000
  24 H           -4.5839    -2.6734    -1.4581 H            1    LIG   0.0000
  25 H           -1.2912     0.4619     2.4054 H            1    LIG   0.0000
  26 H           -2.9227     0.5085     2.4555 H            1    LIG   0.0000
  27 H           -2.1205    -0.7439     3.1297 H            1    LIG   0.0000
  28 H            1.2222    -1.6835    -0.0140 H            1    LIG   0.0000
  29 H            3.2856    -0.4721    -0.0291 H            1    LIG   0.0000
@<TRIPOS>BOND
   1        1        2 1
   2        2        3 1
   3        3        4 ar
   4        4        5 1
   5        5        6 2
   6        6        7 1
   7        7        8 1
   8        7        9 1
   9        9       10 2
  10       10        5 1
  11       10       11 1
  12        4       12 ar
  13       12       13 ar
  14       13       14 ar
  15       14       15 1
  16       14       16 ar
  17       16        3 ar
  18       16       17 1
  19        1       18 1
  20        1       19 1
  21        1       20 1
  22        6       21 1
  23        8       22 1
  24        8       23 1
  25        8       24 1
  26       11       25 1
  27       11       26 1
  28       11       27 1
  29       12       28 1
  30       13       29 1

@<TRIPOS>MOLECULE

  29   30
SMALL
USER_CHARGES
@<TRIPOS>ATOM
   1 C1          -1.9064     2.4291    -1.7319 C.3          1    LIG   0.0000
   2 S2          -1.5443     2.2293     0.0302 S.3          1    LIG   0.0000
   3 C3          -0.0255     1.3800     0.0117 C.ar         1    LIG   0.0000
   4 C4          -0.0067    -0.0116     0.0055 C.ar         1    LIG   0.0000
   5 C5          -1.2308    -0.7896     0.0145 C.2          1    LIG   0.0000
   6 C6          -1.6770    -1.6060    -0.9790 C.2          1    LIG   0.0000
   7 N7          -2.8552    -2.1232    -0.5376 N.pl3        1    LIG   0.0000
   8 C8          -3.6796    -3.0702    -1.3010 C.3          1    LIG   0.0000
   9 N9          -3.1341    -1.6577     0.6608 N.2          1    LIG   0.0000
  10 C10         -2.1871    -0.8402     1.0525 C.2          1    LIG   0.0000
  11 C11         -2.1251    -0.0891     2.3740 C.3          1    LIG   0.0000
  12 C12          1.2109    -0.6835    -0.0095 C.ar         1    LIG   0.0000
  13 C13          2.4128     0.0159    -0.0184 C.ar         1    LIG   0.0000
  14 C14          2.3795     1.4063    -0.0121 C.ar         1    LIG   0.0000
  15 F15          3.5199     2.0913    -0.0207 F            1    LIG   0.0000
  16 C16          1.1694     2.0920     0.0026 C.ar         1    LIG   0.0000
  17 F17          1.1512     3.4217     0.0083 F            1    LIG   0.0000
  18 H           -2.7741     2.9141    -1.8410 H            1    LIG   0.0000
  19 H           -1.1741     2.9544    -2.1653 H            1    LIG   0.0000
  20 H           -1.9712     1.5291    -2.1630 H            1    LIG   0.0000
  21 H           -1.2300    -1.7884    -1.8548 H            1    LIG   0.0000
  22 H           -3.2417    -3.2601    -2.1797 H            1    LIG   0.0000
  23 H           -3.7741    -3.9214    -0.7847 H            1    LIG   0.0000
  24 H           -4.5839    -2.6734    -1.4581 H            1    LIG   0.0000
  25 H           -1.2912     0.4619     2.4054 H            1    LIG   0.0000
  26 H           -2.9227     0.5085     2.4555 H            1    LIG   0.0000
  27 H           -2.1205    -0.7439     3.1297 H            1    LIG   0.0000
  28 H            1.2222    -1.6835    -0.0140 H            1    LIG   0.0000
  29 H            3.2856    -0.4721    -0.0291 H            1    LIG   0.0000
@<TRIPOS>BOND
   1        1        2 1
   2        2        3 1
   3        3        4 ar
   4        4        5 1
   5        5        6 2
   6        6        7 1
   7        7        8 1
   8        7        9 1
   9        9       10 2
  10       10        5 1
  11       10       11 1
  12        4       12 ar
  13       12       13 ar
  14       13       14 ar
  15       14       15 1
  16       14       16 ar
  17       16        3 ar
  18       16       17 1
  19        1       18 1
  20        1       19 1
  21        1       20 1
  22        6       21 1
  23        8       22 1
  24        8       23 1
  25        8       24 1
  26       11       25 1
  27       11       26 1
  28       11       27 1
  29       12       28 1
  30       13       29 1

@<TRIPOS>MOLECULE

  29   30
SMALL
USER_CHARGES
@<TRIPOS>ATOM
   1 C1          -1.8713     2.4150     1.8007 C.3          1    LIG   0.0000
   2 S2          -1.5443     2.2293     0.0302 S.3          1    LIG   0.0000
   3 C3          -0.0255     1.3800     0.0117 C.ar         1    LIG   0.0000
   4 C4          -0.0067    -0.0116     0.0055 C.ar         1    LIG   0.0000
   5 C5          -1.2308    -0.7896     0.0145 C.2          1    LIG   0.0000
   6 C6          -1.8753    -1.2952    -1.0726 C.2          1    LIG   0.0000
   7 N7          -2.9673    -1.9474    -0.5904 N.pl3        1    LIG   0.0000
   8 C8          -3.9451    -2.6539    -1.4294 C.3          1    LIG   0.0000
   9 N9          -3.0083    -1.8550     0.7212 N.2          1    LIG   0.0000
  10 C10         -1.9819    -1.1619     1.1511 C.2          1    LIG   0.0000
  11 C11         -1.6568    -0.8232     2.5981 C.3          1    LIG   0.0000
  12 C12          1.2109    -0.6835    -0.0095 C.ar         1    LIG   0.0000
  13 C13          2.4128     0.0159    -0.0184 C.ar         1    LIG   0.0000
  14 C14          2.3795     1.4063    -0.0121 C.ar         1    LIG   0.0000
  15 F15          3.5199     2.0913    -0.0207 F            1    LIG   0.0000
  16 C16          1.1694     2.0920     0.0026 C.ar         1    LIG   0.0000
  17 F17          1.1512     3.4217     0.0083 F            1    LIG   0.0000
  18 H           -2.7366     2.8991     1.9309 H            1    LIG   0.0000
  19 H           -1.9275     1.5116     2.2258 H            1    LIG   0.0000
  20 H           -1.1305     2.9369     2.2236 H            1    LIG   0.0000
  21 H           -1.6018    -1.2055    -2.0303 H            1    LIG   0.0000
  22 H           -3.6814    -2.5709    -2.3904 H            1    LIG   0.0000
  23 H           -3.9685    -3.6200    -1.1724 H            1    LIG   0.0000
  24 H           -4.8509    -2.2515    -1.2964 H            1    LIG   0.0000
  25 H           -0.8154    -0.2839     2.6333 H            1    LIG   0.0000
  26 H           -2.4081    -0.2949     2.9937 H            1    LIG   0.0000
  27 H           -1.5332    -1.6681     3.1186 H            1    LIG   0.0000
  28 H            1.2222    -1.6835    -0.0140 H            1    LIG   0.0000
  29 H            3.2856    -0.4721    -0.0291 H            1    LIG   0.0000
@<TRIPOS>BOND
   1        1        2 1
   2        2        3 1
   3        3        4 ar
   4        4        5 1
   5        5        6 2
   6        6        7 1
   7        7        8 1
   8        7        9 1
   9        9       10 2
  10       10        5 1
  11       10       11 1
  12        4       12 ar
  13       12       13 ar
  14       13       14 ar
  15       14       15 1
  16       14       16 ar
  17       16        3 ar
  18       16       17 1
  19        1       18 1
  20        1       19 1
  21        1       20 1
  22        6       21 1
  23        8       22 1
  24        8       23 1
  25        8       24 1
  26       11       25 1
  27       11       26 1
  28       11       27 1
  29       12       28 1
  30       13       29 1

@<TRIPOS>MOLECULE

  29   30
SMALL
USER_CHARGES
@<TRIPOS>ATOM
   1 C1          -1.0267     3.9638     0.0320 C.3          1    LIG   0.0000
   2 S2          -1.5443     2.2293     0.0302 S.3          1    LIG   0.0000
   3 C3          -0.0255     1.3800     0.0117 C.ar         1    LIG   0.0000
   4 C4          -0.0067    -0.0116     0.0055 C.ar         1    LIG   0.0000
   5 C5          -1.2308    -0.7896     0.0145 C.2          1    LIG   0.0000
   6 C6          -2.2184    -0.7537    -0.9215 C.2          1    LIG   0.0000
   7 N7          -3.1614    -1.6410    -0.5048 N.pl3        1    LIG   0.0000
   8 C8          -4.4060    -1.9265    -1.2319 C.3          1    LIG   0.0000
   9 N9          -2.7900    -2.1995     0.6270 N.2          1    LIG   0.0000
  10 C10         -1.6260    -1.7236     0.9973 C.2          1    LIG   0.0000
  11 C11         -0.8450    -2.1044     2.2462 C.3          1    LIG   0.0000
  12 C12          1.2109    -0.6835    -0.0095 C.ar         1    LIG   0.0000
  13 C13          2.4128     0.0159    -0.0184 C.ar         1    LIG   0.0000
  14 C14          2.3795     1.4063    -0.0121 C.ar         1    LIG   0.0000
  15 F15          3.5199     2.0913    -0.0207 F            1    LIG   0.0000
  16 C16          1.1694     2.0920     0.0026 C.ar         1    LIG   0.0000
  17 F17          1.1512     3.4217     0.0083 F            1    LIG   0.0000
  18 H           -1.8348     4.5527     0.0424 H            1    LIG   0.0000
  19 H           -0.4716     4.1451     0.8437 H            1    LIG   0.0000
  20 H           -0.4878     4.1517    -0.7892 H            1    LIG   0.0000
  21 H           -2.2452    -0.1899    -1.7471 H            1    LIG   0.0000
  22 H           -4.4437    -1.3677    -2.0604 H            1    LIG   0.0000
  23 H           -4.4319    -2.8945    -1.4812 H            1    LIG   0.0000
  24 H           -5.1895    -1.7114    -0.6488 H            1    LIG   0.0000
  25 H            0.0094    -1.5857     2.2760 H            1    LIG   0.0000
  26 H           -1.3908    -1.8947     3.0575 H            1    LIG   0.0000
  27 H           -0.6404    -3.0830     2.2259 H            1    LIG   0.0000
  28 H            1.2222    -1.6835    -0.0140 H            1    LIG   0.0000
  29 H            3.2856    -0.4721    -0.0291 H            1    LIG   0.0000
@<TRIPOS>BOND
   1        1        2 1
   2        2        3 1
   3        3        4 ar
   4        4        5 1
   5        5        6 2
   6        6        7 1
   7        7        8 1
   8        7        9 1
   9        9       10 2
  10       10        5 1
  11       10       11 1
  12        4       12 ar
  13       12       13 ar
  14       13       14 ar
  15       14       15 1
  16       14       16 ar
  17       16        3 ar
  18       16       17 1
  19        1       18 1
  20        1       19 1
  21        1       20 1
  22        6       21 1
  23        8       22 1
  24        8       23 1
  25        8       24 1
  26       11       25 1
  27       11       26 1
  28       11       27 1
  29       12       28 1
  30       13       29 1

@<TRIPOS>MOLECULE

  29   30
SMALL
USER_CHARGES
@<TRIPOS>ATOM
   1 C1          -1.9064     2.4291    -1.7319 C.3          1    LIG   0.0000
   2 S2          -1.5443     2.2293     0.0302 S.3          1    LIG   0.0000
   3 C3          -0.0255     1.3800     0.0117 C.ar         1    LIG   0.0000
   4 C4          -0.0067    -0.0116     0.0055 C.ar         1    LIG   0.0000
   5 C5          -1.2308    -0.7896     0.0145 C.2          1    LIG   0.0000
   6 C6          -2.2184    -0.7537    -0.9215 C.2          1    LIG   0.0000
   7 N7          -3.1614    -1.6410    -0.5048 N.pl3        1    LIG   0.0000
   8 C8          -4.4060    -1.9265    -1.2319 C.3          1    LIG   0.0000
   9 N9          -2.7900    -2.1995     0.6270 N.2          1    LIG   0.0000
  10 C10         -1.6260    -1.7236     0.9973 C.2          1    LIG   0.0000
  11 C11         -0.8450    -2.1044     2.2462 C.3          1    LIG   0.0000
  12 C12          1.2109    -0.6835    -0.0095 C.ar         1    LIG   0.0000
  13 C13          2.4128     0.0159    -0.0184 C.ar         1    LIG   0.0000
  14 C14          2.3795     1.4063    -0.0121 C.ar         1    LIG   0.0000
  15 F15          3.5199     2.0913    -0.0207 F            1    LIG   0.0000
  16 C16          1.1694     2.0920     0.0026 C.ar         1    LIG   0.0000
  17 F17          1.1512     3.4217     0.0083 F            1    LIG   0.0000
  18 H           -2.7741     2.9141    -1.8410 H            1    LIG   0.0000
  19 H           -1.1741     2.9544    -2.1653 H            1    LIG   0.0000
  20 H           -1.9712     1.5291    -2.1630 H            1    LIG   0.0000
  21 H           -2.2452    -0.1899    -1.7471 H            1    LIG   0.0000
  22 H           -4.4437    -1.3677    -2.0604 H            1    LIG   0.0000
  23 H           -4.4319    -2.8945    -1.4812 H            1    LIG   0.0000
  24 H           -5.1895    -1.7114    -0.6488 H            1    LIG   0.0000
  25 H            0.0094    -1.5857     2.2760 H            1    LIG   0.0000
  26 H           -1.3908    -1.8947     3.0575 H            1    LIG   0.0000
  27 H           -0.6404    -3.0830     2.2259 H            1    LIG   0.0000
  28 H            1.2222    -1.6835    -0.0140 H            1    LIG   0.0000
  29 H            3.2856    -0.4721    -0.0291 H            1    LIG   0.0000
@<TRIPOS>BOND
   1        1        2 1
   2        2        3 1
   3        3        4 ar
   4        4        5 1
   5        5        6 2
   6        6        7 1
   7        7        8 1
   8        7        9 1
   9        9       10 2
  10       10        5 1
  11       10       11 1
  12        4       12 ar
  13       12       13 ar
  14       13       14 ar
  15       14       15 1
  16       14       16 ar
  17       16        3 ar
  18       16       17 1
  19        1       18 1
  20        1       19 1
  21        1       20 1
  22        6       21 1
  23        8       22 1
  24        8       23 1
  25        8       24 1
  26       11       25 1
  27       11       26 1
  28       11       27 1
  29       12       28 1
  30       13       29 1

@<TRIPOS>MOLECULE

  29   30
SMALL
USER_CHARGES
@<TRIPOS>ATOM
   1 C1          -1.8713     2.4150     1.8007 C.3          1    LIG   0.0000
   2 S2          -1.5443     2.2293     0.0302 S.3          1    LIG   0.0000
   3 C3          -0.0255     1.3800     0.0117 C.ar         1    LIG   0.0000
   4 C4          -0.0067    -0.0116     0.0055 C.ar         1    LIG   0.0000
   5 C5          -1.2308    -0.7896     0.0145 C.2          1    LIG   0.0000
   6 C6          -2.2184    -0.7537    -0.9215 C.2          1    LIG   0.0000
   7 N7          -3.1614    -1.6410    -0.5048 N.pl3        1    LIG   0.0000
   8 C8          -4.4060    -1.9265    -1.2319 C.3          1    LIG   0.0000
   9 N9          -2.7900    -2.1995     0.6270 N.2          1    LIG   0.0000
  10 C10         -1.6260    -1.7236     0.9973 C.2          1    LIG   0.0000
  11 C11         -0.8450    -2.1044     2.2462 C.3          1    LIG   0.0000
  12 C12          1.2109    -0.6835    -0.0095 C.ar         1    LIG   0.0000
  13 C13          2.4128     0.0159    -0.0184 C.ar         1    LIG   0.0000
  14 C14          2.3795     1.4063    -0.0121 C.ar         1    LIG   0.0000
  15 F15          3.5199     2.0913    -0.0207 F            1    LIG   0.0000
  16 C16          1.1694     2.0920     0.0026 C.ar         1    LIG   0.0000
  17 F17          1.1512     3.4217     0.0083 F            1    LIG   0.0000
  18 H           -2.7366     2.8991     1.9309 H            1    LIG   0.0000
  19 H           -1.9275     1.5116     2.2258 H            1    LIG   0.0000
  20 H           -1.1305     2.9369     2.2236 H            1    LIG   0.0000
  21 H           -2.2452    -0.1899    -1.7471 H            1    LIG   0.0000
  22 H           -4.4437    -1.3677    -2.0604 H            1    LIG   0.0000
  23 H           -4.4319    -2.8945    -1.4812 H            1    LIG   0.0000
  24 H           -5.1895    -1.7114    -0.6488 H            1    LIG   0.0000
  25 H            0.0094    -1.5857     2.2760 H            1    LIG   0.0000
  26 H           -1.3908    -1.8947     3.0575 H            1    LIG   0.0000
  27 H           -0.6404    -3.0830     2.2259 H            1    LIG   0.0000
  28 H            1.2222    -1.6835    -0.0140 H            1    LIG   0.0000
  29 H            3.2856    -0.4721    -0.0291 H            1    LIG   0.0000
@<TRIPOS>BOND
   1        1        2 1
   2        2        3 1
   3        3        4 ar
   4        4        5 1
   5        5        6 2
   6        6        7 1
   7        7        8 1
   8        7        9 1
   9        9       10 2
  10       10        5 1
  11       10       11 1
  12        4       12 ar
  13       12       13 ar
  14       13       14 ar
  15       14       15 1
  16       14       16 ar
  17       16        3 ar
  18       16       17 1
  19        1       18 1
  20        1       19 1
  21        1       20 1
  22        6       21 1
  23        8       22 1
  24        8       23 1
  25        8       24 1
  26       11       25 1
  27       11       26 1
  28       11       27 1
  29       12       28 1
  30       13       29 1

@<TRIPOS>MOLECULE

  29   30
SMALL
USER_CHARGES
@<TRIPOS>ATOM
   1 C1          -2.4296     1.4256     1.3890 C.3          1    LIG   0.0000
   2 S2          -1.5443     2.2293     0.0302 S.3          1    LIG   0.0000
   3 C3          -0.0255     1.3800     0.0117 C.ar         1    LIG   0.0000
   4 C4          -0.0067    -0.0116     0.0055 C.ar         1    LIG   0.0000
   5 C5          -1.2308    -0.7896     0.0145 C.2          1    LIG   0.0000
   6 C6          -2.3716    -0.5097    -0.6732 C.2          1    LIG   0.0000
   7 N7          -3.2481    -1.5031    -0.3643 N.pl3        1    LIG   0.0000
   8 C8          -4.6126    -1.5976    -0.9011 C.3          1    LIG   0.0000
   9 N9          -2.6923    -2.3551     0.4699 N.2          1    LIG   0.0000
  10 C10         -1.4666    -1.9773     0.7413 C.2          1    LIG   0.0000
  11 C11         -0.4817    -2.6828     1.6614 C.3          1    LIG   0.0000
  12 C12          1.2109    -0.6835    -0.0095 C.ar         1    LIG   0.0000
  13 C13          2.4128     0.0159    -0.0184 C.ar         1    LIG   0.0000
  14 C14          2.3795     1.4063    -0.0121 C.ar         1    LIG   0.0000
  15 F15          3.5199     2.0913    -0.0207 F            1    LIG   0.0000
  16 C16          1.1694     2.0920     0.0026 C.ar         1    LIG   0.0000
  17 F17          1.1512     3.4217     0.0083 F            1    LIG   0.0000
  18 H           -3.3327     1.8427     1.4913 H            1    LIG   0.0000
  19 H           -2.5331     0.4513     1.1893 H            1    LIG   0.0000
  20 H           -1.9121     1.5389     2.2372 H            1    LIG   0.0000
  21 H           -2.5326     0.2676    -1.2814 H            1    LIG   0.0000
  22 H           -4.7850    -0.8245    -1.5115 H            1    LIG   0.0000
  23 H           -4.7122    -2.4527    -1.4099 H            1    LIG   0.0000
  24 H           -5.2694    -1.5798    -0.1472 H            1    LIG   0.0000
  25 H            0.3787    -2.1735     1.6821 H            1    LIG   0.0000
  26 H           -0.8632    -2.7302     2.5846 H            1    LIG   0.0000
  27 H           -0.3131    -3.6084     1.3225 H            1    LIG   0.0000
  28 H            1.2222    -1.6835    -0.0140 H            1    LIG   0.0000
  29 H            3.2856    -0.4721    -0.0291 H            1    LIG   0.0000
@<TRIPOS>BOND
   1        1        2 1
   2        2        3 1
   3        3        4 ar
   4        4        5 1
   5        5        6 2
   6        6        7 1
   7        7        8 1
   8        7        9 1
   9        9       10 2
  10       10        5 1
  11       10       11 1
  12        4       12 ar
  13       12       13 ar
  14       13       14 ar
  15       14       15 1
  16       14       16 ar
  17       16        3 ar
  18       16       17 1
  19        1       18 1
  20        1       19 1
  21        1       20 1
  22        6       21 1
  23        8       22 1
  24        8       23 1
  25        8       24 1
  26       11       25 1
  27       11       26 1
  28       11       27 1
  29       12       28 1
  30       13       29 1

@<TRIPOS>MOLECULE

  29   30
SMALL
USER_CHARGES
@<TRIPOS>ATOM
   1 C1          -1.0267     3.9638     0.0320 C.3          1    LIG   0.0000
   2 S2          -1.5443     2.2293     0.0302 S.3          1    LIG   0.0000
   3 C3          -0.0255     1.3800     0.0117 C.ar         1    LIG   0.0000
   4 C4          -0.0067    -0.0116     0.0055 C.ar         1    LIG   0.0000
   5 C5          -1.2308    -0.7896     0.0145 C.2          1    LIG   0.0000
   6 C6          -2.1949    -0.7686     0.9752 C.2          1    LIG   0.0000
   7 N7          -3.1479    -1.6498     0.5682 N.pl3        1    LIG   0.0000
   8 C8          -4.3827    -1.9338     1.3125 C.3          1    LIG   0.0000
   9 N9          -2.8022    -2.1943    -0.5784 N.2          1    LIG   0.0000
  10 C10         -1.6458    -1.7152    -0.9681 C.2          1    LIG   0.0000
  11 C11         -0.8923    -2.0820    -2.2377 C.3          1    LIG   0.0000
  12 C12          1.2109    -0.6835    -0.0095 C.ar         1    LIG   0.0000
  13 C13          2.4128     0.0159    -0.0184 C.ar         1    LIG   0.0000
  14 C14          2.3795     1.4063    -0.0121 C.ar         1    LIG   0.0000
  15 F15          3.5199     2.0913    -0.0207 F            1    LIG   0.0000
  16 C16          1.1694     2.0920     0.0026 C.ar         1    LIG   0.0000
  17 F17          1.1512     3.4217     0.0083 F            1    LIG   0.0000
  18 H           -1.8348     4.5527     0.0424 H            1    LIG   0.0000
  19 H           -0.4716     4.1451     0.8437 H            1    LIG   0.0000
  20 H           -0.4878     4.1517    -0.7892 H            1    LIG   0.0000
  21 H           -2.2014    -0.2177     1.8097 H            1    LIG   0.0000
  22 H           -4.4000    -1.3877     2.1500 H            1    LIG   0.0000
  23 H           -5.1738    -1.7015     0.7467 H            1    LIG   0.0000
  24 H           -4.4144    -2.9053     1.5472 H            1    LIG   0.0000
  25 H           -0.0380    -1.5638    -2.2798 H            1    LIG   0.0000
  26 H           -0.6884    -3.0610    -2.2333 H            1    LIG   0.0000
  27 H           -1.4550    -1.8623    -3.0346 H            1    LIG   0.0000
  28 H            1.2222    -1.6835    -0.0140 H            1    LIG   0.0000
  29 H            3.2856    -0.4721    -0.0291 H            1    LIG   0.0000
@<TRIPOS>BOND
   1        1        2 1
   2        2        3 1
   3        3        4 ar
   4        4        5 1
   5        5        6 2
   6        6        7 1
   7        7        8 1
   8        7        9 1
   9        9       10 2
  10       10        5 1
  11       10       11 1
  12        4       12 ar
  13       12       13 ar
  14       13       14 ar
  15       14       15 1
  16       14       16 ar
  17       16        3 ar
  18       16       17 1
  19        1       18 1
  20        1       19 1
  21        1       20 1
  22        6       21 1
  23        8       22 1
  24        8       23 1
  25        8       24 1
  26       11       25 1
  27       11       26 1
  28       11       27 1
  29       12       28 1
  30       13       29 1

@<TRIPOS>MOLECULE

  29   30
SMALL
USER_CHARGES
@<TRIPOS>ATOM
   1 C1          -1.9064     2.4291    -1.7319 C.3          1    LIG   0.0000
   2 S2          -1.5443     2.2293     0.0302 S.3          1    LIG   0.0000
   3 C3          -0.0255     1.3800     0.0117 C.ar         1    LIG   0.0000
   4 C4          -0.0067    -0.0116     0.0055 C.ar         1    LIG   0.0000
   5 C5          -1.2308    -0.7896     0.0145 C.2          1    LIG   0.0000
   6 C6          -2.1949    -0.7686     0.9752 C.2          1    LIG   0.0000
   7 N7          -3.1479    -1.6498     0.5682 N.pl3        1    LIG   0.0000
   8 C8          -4.3827    -1.9338     1.3125 C.3          1    LIG   0.0000
   9 N9          -2.8022    -2.1943    -0.5784 N.2          1    LIG   0.0000
  10 C10         -1.6458    -1.7152    -0.9681 C.2          1    LIG   0.0000
  11 C11         -0.8923    -2.0820    -2.2377 C.3          1    LIG   0.0000
  12 C12          1.2109    -0.6835    -0.0095 C.ar         1    LIG   0.0000
  13 C13          2.4128     0.0159    -0.0184 C.ar         1    LIG   0.0000
  14 C14          2.3795     1.4063    -0.0121 C.ar         1    LIG   0.0000
  15 F15          3.5199     2.0913    -0.0207 F            1    LIG   0.0000
  16 C16          1.1694     2.0920     0.0026 C.ar         1    LIG   0.0000
  17 F17          1.1512     3.4217     0.0083 F            1    LIG   0.0000
  18 H           -2.7741     2.9141    -1.8410 H            1    LIG   0.0000
  19 H           -1.1741     2.9544    -2.1653 H            1    LIG   0.0000
  20 H           -1.9712     1.5291    -2.1630 H            1    LIG   0.0000
  21 H           -2.2014    -0.2177     1.8097 H            1    LIG   0.0000
  22 H           -4.4000    -1.3877     2.1500 H            1    LIG   0.0000
  23 H           -5.1738    -1.7015     0.7467 H            1    LIG   0.0000
  24 H           -4.4144    -2.9053     1.5472 H            1    LIG   0.0000
  25 H           -0.0380    -1.5638    -2.2798 H            1    LIG   0.0000
  26 H           -0.6884    -3.0610    -2.2333 H            1    LIG   0.0000
  27 H           -1.4550    -1.8623    -3.0346 H            1    LIG   0.0000
  28 H            1.2222    -1.6835    -0.0140 H            1    LIG   0.0000
  29 H            3.2856    -0.4721    -0.0291 H            1    LIG   0.0000
@<TRIPOS>BOND
   1        1        2 1
   2        2        3 1
   3        3        4 ar
   4        4        5 1
   5        5        6 2
   6        6        7 1
   7        7        8 1
   8        7        9 1
   9        9       10 2
  10       10        5 1
  11       10       11 1
  12        4       12 ar
  13       12       13 ar
  14       13       14 ar
  15       14       15 1
  16       14       16 ar
  17       16        3 ar
  18       16       17 1
  19        1       18 1
  20        1       19 1
  21        1       20 1
  22        6       21 1
  23        8       22 1
  24        8       23 1
  25        8       24 1
  26       11       25 1
  27       11       26 1
  28       11       27 1
  29       12       28 1
  30       13       29 1

@<TRIPOS>MOLECULE

  29   30
SMALL
USER_CHARGES
@<TRIPOS>ATOM
   1 C1          -1.8713     2.4150     1.8007 C.3          1    LIG   0.0000
   2 S2          -1.5443     2.2293     0.0302 S.3          1    LIG   0.0000
   3 C3          -0.0255     1.3800     0.0117 C.ar         1    LIG   0.0000
   4 C4          -0.0067    -0.0116     0.0055 C.ar         1    LIG   0.0000
   5 C5          -1.2308    -0.7896     0.0145 C.2          1    LIG   0.0000
   6 C6          -2.1949    -0.7686     0.9752 C.2          1    LIG   0.0000
   7 N7          -3.1479    -1.6498     0.5682 N.pl3        1    LIG   0.0000
   8 C8          -4.3827    -1.9338     1.3125 C.3          1    LIG   0.0000
   9 N9          -2.8022    -2.1943    -0.5784 N.2          1    LIG   0.0000
  10 C10         -1.6458    -1.7152    -0.9681 C.2          1    LIG   0.0000
  11 C11         -0.8923    -2.0820    -2.2377 C.3          1    LIG   0.0000
  12 C12          1.2109    -0.6835    -0.0095 C.ar         1    LIG   0.0000
  13 C13          2.4128     0.0159    -0.0184 C.ar         1    LIG   0.0000
  14 C14          2.3795     1.4063    -0.0121 C.ar         1    LIG   0.0000
  15 F15          3.5199     2.0913    -0.0207 F            1    LIG   0.0000
  16 C16          1.1694     2.0920     0.0026 C.ar         1    LIG   0.0000
  17 F17          1.1512     3.4217     0.0083 F            1    LIG   0.0000
  18 H           -2.7366     2.8991     1.9309 H            1    LIG   0.0000
  19 H           -1.9275     1.5116     2.2258 H            1    LIG   0.0000
  20 H           -1.1305     2.9369     2.2236 H            1    LIG   0.0000
  21 H           -2.2014    -0.2177     1.8097 H            1    LIG   0.0000
  22 H           -4.4000    -1.3877     2.1500 H            1    LIG   0.0000
  23 H           -5.1738    -1.7015     0.7467 H            1    LIG   0.0000
  24 H           -4.4144    -2.9053     1.5472 H            1    LIG   0.0000
  25 H           -0.0380    -1.5638    -2.2798 H            1    LIG   0.0000
  26 H           -0.6884    -3.0610    -2.2333 H            1    LIG   0.0000
  27 H           -1.4550    -1.8623    -3.0346 H            1    LIG   0.0000
  28 H            1.2222    -1.6835    -0.0140 H            1    LIG   0.0000
  29 H            3.2856    -0.4721    -0.0291 H            1    LIG   0.0000
@<TRIPOS>BOND
   1        1        2 1
   2        2        3 1
   3        3        4 ar
   4        4        5 1
   5        5        6 2
   6        6        7 1
   7        7        8 1
   8        7        9 1
   9        9       10 2
  10       10        5 1
  11       10       11 1
  12        4       12 ar
  13       12       13 ar
  14       13       14 ar
  15       14       15 1
  16       14       16 ar
  17       16        3 ar
  18       16       17 1
  19        1       18 1
  20        1       19 1
  21        1       20 1
  22        6       21 1
  23        8       22 1
  24        8       23 1
  25        8       24 1
  26       11       25 1
  27       11       26 1
  28       11       27 1
  29       12       28 1
  30       13       29 1

@<TRIPOS>MOLECULE

  29   30
SMALL
USER_CHARGES
@<TRIPOS>ATOM
   1 C1          -2.4565     1.4364    -1.3171 C.3          1    LIG   0.0000
   2 S2          -1.5443     2.2293     0.0302 S.3          1    LIG   0.0000
   3 C3          -0.0255     1.3800     0.0117 C.ar         1    LIG   0.0000
   4 C4          -0.0067    -0.0116     0.0055 C.ar         1    LIG   0.0000
   5 C5          -1.2308    -0.7896     0.0145 C.2          1    LIG   0.0000
   6 C6          -2.3542    -0.5208     0.7346 C.2          1    LIG   0.0000
   7 N7          -3.2381    -1.5096     0.4321 N.pl3        1    LIG   0.0000
   8 C8          -4.5953    -1.6030     0.9874 C.3          1    LIG   0.0000
   9 N9          -2.7013    -2.3512    -0.4247 N.2          1    LIG   0.0000
  10 C10         -1.4813    -1.9711    -0.7175 C.2          1    LIG   0.0000
  11 C11         -0.5167    -2.6662    -1.6666 C.3          1    LIG   0.0000
  12 C12          1.2109    -0.6835    -0.0095 C.ar         1    LIG   0.0000
  13 C13          2.4128     0.0159    -0.0184 C.ar         1    LIG   0.0000
  14 C14          2.3795     1.4063    -0.0121 C.ar         1    LIG   0.0000
  15 F15          3.5199     2.0913    -0.0207 F            1    LIG   0.0000
  16 C16          1.1694     2.0920     0.0026 C.ar         1    LIG   0.0000
  17 F17          1.1512     3.4217     0.0083 F            1    LIG   0.0000
  18 H           -3.3614     1.8542    -1.3981 H            1    LIG   0.0000
  19 H           -1.9560     1.5565    -2.1745 H            1    LIG   0.0000
  20 H           -2.5561     0.4605    -1.1232 H            1    LIG   0.0000
  21 H           -2.5001     0.2470     1.3585 H            1    LIG   0.0000
  22 H           -4.7525    -0.8393     1.6136 H            1    LIG   0.0000
  23 H           -5.2629    -1.5672     0.2437 H            1    LIG   0.0000
  24 H           -4.6941    -2.4660     1.4828 H            1    LIG   0.0000
  25 H            0.3435    -2.1572    -1.6994 H            1    LIG   0.0000
  26 H           -0.3419    -3.5958    -1.3424 H            1    LIG   0.0000
  27 H           -0.9178    -2.7023    -2.5820 H            1    LIG   0.0000
  28 H            1.2222    -1.6835    -0.0140 H            1    LIG   0.0000
  29 H            3.2856    -0.4721    -0.0291 H            1    LIG   0.0000
@<TRIPOS>BOND
   1        1        2 1
   2        2        3 1
   3        3        4 ar
   4        4        5 1
   5        5        6 2
   6        6        7 1
   7        7        8 1
   8        7        9 1
   9        9       10 2
  10       10        5 1
  11       10       11 1
  12        4       12 ar
  13       12       13 ar
  14       13       14 ar
  15       14       15 1
  16       14       16 ar
  17       16        3 ar
  18       16       17 1
  19        1       18 1
  20        1       19 1
  21        1       20 1
  22        6       21 1
  23        8       22 1
  24        8       23 1
  25        8       24 1
  26       11       25 1
  27       11       26 1
  28       11       27 1
  29       12       28 1
  30       13       29 1

