@<TRIPOS>MOLECULE
*****
 29 30 0 0 0
SMALL
USER_CHARGES

@<TRIPOS>ATOM
      1 C1         -2.4565    1.4364   -1.3171 C.3     1  LIG1        0.0000
      2 S2         -1.5443    2.2293    0.0302 S.3     1  LIG1        0.0000
      3 C3         -0.0255    1.3800    0.0117 C.ar    1  LIG1        0.0000
      4 C4         -0.0067   -0.0116    0.0055 C.ar    1  LIG1        0.0000
      5 C5         -1.2308   -0.7896    0.0145 C.2     1  LIG1        0.0000
      6 C6         -2.3542   -0.5208    0.7346 C.2     1  LIG1        0.0000
      7 N7         -3.2381   -1.5096    0.4321 N.pl3   1  LIG1        0.0000
      8 C8         -4.5953   -1.6030    0.9874 C.3     1  LIG1        0.0000
      9 N9         -2.7013   -2.3512   -0.4247 N.2     1  LIG1        0.0000
     10 C10        -1.4813   -1.9711   -0.7175 C.2     1  LIG1        0.0000
     11 C11        -0.5167   -2.6662   -1.6666 C.3     1  LIG1        0.0000
     12 C12         1.2109   -0.6835   -0.0095 C.ar    1  LIG1        0.0000
     13 C13         2.4128    0.0159   -0.0184 C.ar    1  LIG1        0.0000
     14 C14         2.3795    1.4063   -0.0121 C.ar    1  LIG1        0.0000
     15 F15         3.5199    2.0913   -0.0207 F       1  LIG1        0.0000
     16 C16         1.1694    2.0920    0.0026 C.ar    1  LIG1        0.0000
     17 F17         1.1512    3.4217    0.0083 F       1  LIG1        0.0000
     18 H          -3.3614    1.8542   -1.3981 H       1  LIG1        0.0000
     19 H          -1.9560    1.5565   -2.1745 H       1  LIG1        0.0000
     20 H          -2.5561    0.4605   -1.1232 H       1  LIG1        0.0000
     21 H          -2.5001    0.2470    1.3585 H       1  LIG1        0.0000
     22 H          -4.7525   -0.8393    1.6136 H       1  LIG1        0.0000
     23 H          -5.2629   -1.5672    0.2437 H       1  LIG1        0.0000
     24 H          -4.6941   -2.4660    1.4828 H       1  LIG1        0.0000
     25 H           0.3435   -2.1572   -1.6994 H       1  LIG1        0.0000
     26 H          -0.3419   -3.5958   -1.3424 H       1  LIG1        0.0000
     27 H          -0.9178   -2.7023   -2.5820 H       1  LIG1        0.0000
     28 H           1.2222   -1.6835   -0.0140 H       1  LIG1        0.0000
     29 H           3.2856   -0.4721   -0.0291 H       1  LIG1        0.0000
@<TRIPOS>BOND
     1     1     2    1
     2     2     3    1
     3     3     4   ar
     4     4     5    1
     5     5     6    2
     6     6     7    1
     7     7     8    1
     8     7     9    1
     9     9    10    2
    10    10     5    1
    11    10    11    1
    12     4    12   ar
    13    12    13   ar
    14    13    14   ar
    15    14    15    1
    16    14    16   ar
    17    16     3   ar
    18    16    17    1
    19     1    18    1
    20     1    19    1
    21     1    20    1
    22     6    21    1
    23     8    22    1
    24     8    23    1
    25     8    24    1
    26    11    25    1
    27    11    26    1
    28    11    27    1
    29    12    28    1
    30    13    29    1
