@<TRIPOS>MOLECULE
*****
 29 30 0 0 0
SMALL
USER_CHARGES

@<TRIPOS>ATOM
      1 C1         -1.8713    2.4150    1.8007 C.3     1  LIG1        0.0000
      2 S2         -1.5443    2.2293    0.0302 S.3     1  LIG1        0.0000
      3 C3         -0.0255    1.3800    0.0117 C.ar    1  LIG1        0.0000
      4 C4         -0.0067   -0.0116    0.0055 C.ar    1  LIG1        0.0000
      5 C5         -1.2308   -0.7896    0.0145 C.2     1  LIG1        0.0000
      6 C6         -1.8753   -1.2952   -1.0726 C.2     1  LIG1        0.0000
      7 N7         -2.9673   -1.9474   -0.5904 N.pl3   1  LIG1        0.0000
      8 C8         -3.9451   -2.6539   -1.4294 C.3     1  LIG1        0.0000
      9 N9         -3.0083   -1.8550    0.7212 N.2     1  LIG1        0.0000
     10 C10        -1.9819   -1.1619    1.1511 C.2     1  LIG1        0.0000
     11 C11        -1.6568   -0.8232    2.5981 C.3     1  LIG1        0.0000
     12 C12         1.2109   -0.6835   -0.0095 C.ar    1  LIG1        0.0000
     13 C13         2.4128    0.0159   -0.0184 C.ar    1  LIG1        0.0000
     14 C14         2.3795    1.4063   -0.0121 C.ar    1  LIG1        0.0000
     15 F15         3.5199    2.0913   -0.0207 F       1  LIG1        0.0000
     16 C16         1.1694    2.0920    0.0026 C.ar    1  LIG1        0.0000
     17 F17         1.1512    3.4217    0.0083 F       1  LIG1        0.0000
     18 H          -2.7366    2.8991    1.9309 H       1  LIG1        0.0000
     19 H          -1.9275    1.5116    2.2258 H       1  LIG1        0.0000
     20 H          -1.1305    2.9369    2.2236 H       1  LIG1        0.0000
     21 H          -1.6018   -1.2055   -2.0303 H       1  LIG1        0.0000
     22 H          -3.6814   -2.5709   -2.3904 H       1  LIG1        0.0000
     23 H          -3.9685   -3.6200   -1.1724 H       1  LIG1        0.0000
     24 H          -4.8509   -2.2515   -1.2964 H       1  LIG1        0.0000
     25 H          -0.8154   -0.2839    2.6333 H       1  LIG1        0.0000
     26 H          -2.4081   -0.2949    2.9937 H       1  LIG1        0.0000
     27 H          -1.5332   -1.6681    3.1186 H       1  LIG1        0.0000
     28 H           1.2222   -1.6835   -0.0140 H       1  LIG1        0.0000
     29 H           3.2856   -0.4721   -0.0291 H       1  LIG1        0.0000
@<TRIPOS>BOND
     1     1     2    1
     2     2     3    1
     3     3     4   ar
     4     4     5    1
     5     5     6    2
     6     6     7    1
     7     7     8    1
     8     7     9    1
     9     9    10    2
    10    10     5    1
    11    10    11    1
    12     4    12   ar
    13    12    13   ar
    14    13    14   ar
    15    14    15    1
    16    14    16   ar
    17    16     3   ar
    18    16    17    1
    19     1    18    1
    20     1    19    1
    21     1    20    1
    22     6    21    1
    23     8    22    1
    24     8    23    1
    25     8    24    1
    26    11    25    1
    27    11    26    1
    28    11    27    1
    29    12    28    1
    30    13    29    1
