@<TRIPOS>MOLECULE
*****
 29 30 0 0 0
SMALL
USER_CHARGES

@<TRIPOS>ATOM
      1 C1         -1.0267    3.9638    0.0320 C.3     1  LIG1        0.0000
      2 S2         -1.5443    2.2293    0.0302 S.3     1  LIG1        0.0000
      3 C3         -0.0255    1.3800    0.0117 C.ar    1  LIG1        0.0000
      4 C4         -0.0067   -0.0116    0.0055 C.ar    1  LIG1        0.0000
      5 C5         -1.2308   -0.7896    0.0145 C.2     1  LIG1        0.0000
      6 C6         -1.6525   -1.6216    1.0059 C.2     1  LIG1        0.0000
      7 N7         -2.8411   -2.1324    0.5853 N.pl3   1  LIG1        0.0000
      8 C8         -3.6551   -3.0778    1.3617 C.3     1  LIG1        0.0000
      9 N9         -3.1469   -1.6522   -0.6006 N.2     1  LIG1        0.0000
     10 C10        -2.2078   -0.8314   -1.0043 C.2     1  LIG1        0.0000
     11 C11        -2.1745   -0.0656   -2.3185 C.3     1  LIG1        0.0000
     12 C12         1.2109   -0.6835   -0.0095 C.ar    1  LIG1        0.0000
     13 C13         2.4128    0.0159   -0.0184 C.ar    1  LIG1        0.0000
     14 C14         2.3795    1.4063   -0.0121 C.ar    1  LIG1        0.0000
     15 F15         3.5199    2.0913   -0.0207 F       1  LIG1        0.0000
     16 C16         1.1694    2.0920    0.0026 C.ar    1  LIG1        0.0000
     17 F17         1.1512    3.4217    0.0083 F       1  LIG1        0.0000
     18 H          -1.8348    4.5527    0.0424 H       1  LIG1        0.0000
     19 H          -0.4716    4.1451    0.8437 H       1  LIG1        0.0000
     20 H          -0.4878    4.1517   -0.7892 H       1  LIG1        0.0000
     21 H          -1.1842   -1.8174    1.8675 H       1  LIG1        0.0000
     22 H          -3.1960   -3.2810    2.2265 H       1  LIG1        0.0000
     23 H          -4.5505   -2.6728    1.5468 H       1  LIG1        0.0000
     24 H          -3.7729   -3.9228    0.8401 H       1  LIG1        0.0000
     25 H          -1.3408    0.4849   -2.3624 H       1  LIG1        0.0000
     26 H          -2.1877   -0.7120   -3.0814 H       1  LIG1        0.0000
     27 H          -2.9730    0.5336   -2.3754 H       1  LIG1        0.0000
     28 H           1.2222   -1.6835   -0.0140 H       1  LIG1        0.0000
     29 H           3.2856   -0.4721   -0.0291 H       1  LIG1        0.0000
@<TRIPOS>BOND
     1     1     2    1
     2     2     3    1
     3     3     4   ar
     4     4     5    1
     5     5     6    2
     6     6     7    1
     7     7     8    1
     8     7     9    1
     9     9    10    2
    10    10     5    1
    11    10    11    1
    12     4    12   ar
    13    12    13   ar
    14    13    14   ar
    15    14    15    1
    16    14    16   ar
    17    16     3   ar
    18    16    17    1
    19     1    18    1
    20     1    19    1
    21     1    20    1
    22     6    21    1
    23     8    22    1
    24     8    23    1
    25     8    24    1
    26    11    25    1
    27    11    26    1
    28    11    27    1
    29    12    28    1
    30    13    29    1
