@<TRIPOS>MOLECULE
*****
 29 30 0 0 0
SMALL
USER_CHARGES

@<TRIPOS>ATOM
      1 C1         -2.4296    1.4256    1.3890 C.3     1  LIG1        0.0000
      2 S2         -1.5443    2.2293    0.0302 S.3     1  LIG1        0.0000
      3 C3         -0.0255    1.3800    0.0117 C.ar    1  LIG1        0.0000
      4 C4         -0.0067   -0.0116    0.0055 C.ar    1  LIG1        0.0000
      5 C5         -1.2308   -0.7896    0.0145 C.2     1  LIG1        0.0000
      6 C6         -2.3716   -0.5097   -0.6732 C.2     1  LIG1        0.0000
      7 N7         -3.2481   -1.5031   -0.3643 N.pl3   1  LIG1        0.0000
      8 C8         -4.6126   -1.5976   -0.9011 C.3     1  LIG1        0.0000
      9 N9         -2.6923   -2.3551    0.4699 N.2     1  LIG1        0.0000
     10 C10        -1.4666   -1.9773    0.7413 C.2     1  LIG1        0.0000
     11 C11        -0.4817   -2.6828    1.6614 C.3     1  LIG1        0.0000
     12 C12         1.2109   -0.6835   -0.0095 C.ar    1  LIG1        0.0000
     13 C13         2.4128    0.0159   -0.0184 C.ar    1  LIG1        0.0000
     14 C14         2.3795    1.4063   -0.0121 C.ar    1  LIG1        0.0000
     15 F15         3.5199    2.0913   -0.0207 F       1  LIG1        0.0000
     16 C16         1.1694    2.0920    0.0026 C.ar    1  LIG1        0.0000
     17 F17         1.1512    3.4217    0.0083 F       1  LIG1        0.0000
     18 H          -3.3327    1.8427    1.4913 H       1  LIG1        0.0000
     19 H          -2.5331    0.4513    1.1893 H       1  LIG1        0.0000
     20 H          -1.9121    1.5389    2.2372 H       1  LIG1        0.0000
     21 H          -2.5326    0.2676   -1.2814 H       1  LIG1        0.0000
     22 H          -4.7850   -0.8245   -1.5115 H       1  LIG1        0.0000
     23 H          -4.7122   -2.4527   -1.4099 H       1  LIG1        0.0000
     24 H          -5.2694   -1.5798   -0.1472 H       1  LIG1        0.0000
     25 H           0.3787   -2.1735    1.6821 H       1  LIG1        0.0000
     26 H          -0.8632   -2.7302    2.5846 H       1  LIG1        0.0000
     27 H          -0.3131   -3.6084    1.3225 H       1  LIG1        0.0000
     28 H           1.2222   -1.6835   -0.0140 H       1  LIG1        0.0000
     29 H           3.2856   -0.4721   -0.0291 H       1  LIG1        0.0000
@<TRIPOS>BOND
     1     1     2    1
     2     2     3    1
     3     3     4   ar
     4     4     5    1
     5     5     6    2
     6     6     7    1
     7     7     8    1
     8     7     9    1
     9     9    10    2
    10    10     5    1
    11    10    11    1
    12     4    12   ar
    13    12    13   ar
    14    13    14   ar
    15    14    15    1
    16    14    16   ar
    17    16     3   ar
    18    16    17    1
    19     1    18    1
    20     1    19    1
    21     1    20    1
    22     6    21    1
    23     8    22    1
    24     8    23    1
    25     8    24    1
    26    11    25    1
    27    11    26    1
    28    11    27    1
    29    12    28    1
    30    13    29    1
