@<TRIPOS>MOLECULE

  27   28
SMALL
USER_CHARGES
@<TRIPOS>ATOM
   1 C1           3.3428    -0.0198    -1.1902 C.3          1    LIG   0.0000
   2 C2           2.0290     0.7323    -1.3268 C.3          1    LIG   0.0000
   3 C3           1.3284     0.7773     0.0214 C.3          1    LIG   0.0000
   4 C4           0.0389     0.0063     0.0041 C.3          1    LIG   0.0000
   5 C5           0.0179     1.5072    -0.0335 C.3          1    LIG   0.0000
   6 C6          -0.3836     2.0609     1.3245 C.3          1    LIG   0.0000
   7 N7          -1.6684     2.7612     1.2070 N.pl3        1    LIG   0.0000
   8 N8          -2.8537     2.2154     1.3678 N.2          1    LIG   0.0000
   9 C9          -3.7926     3.1161     1.1903 C.2          1    LIG   0.0000
  10 C10         -3.1406     4.3349     0.8973 C.2          1    LIG   0.0000
  11 C11         -1.8013     4.0812     0.9166 C.2          1    LIG   0.0000
  12 N12         -0.7684     4.9973     0.6828 N.2          1    LIG   1.0000
  13 O13          0.3848     4.6340     0.7306 O.co2        1    LIG   0.0000
  14 O14         -1.0311     6.1617     0.4308 O.co2        1    LIG  -1.0000
  15 H            1.8738     0.8064     0.8591 H            1    LIG   0.0000
  16 H           -0.2555     1.9835    -0.8692 H            1    LIG   0.0000
  17 H            3.8036    -0.0494    -2.0772 H            1    LIG   0.0000
  18 H            3.9269     0.4473    -0.5265 H            1    LIG   0.0000
  19 H            3.1621    -0.9522    -0.8772 H            1    LIG   0.0000
  20 H            2.2097     1.6647    -1.6398 H            1    LIG   0.0000
  21 H            1.4449     0.2652    -1.9905 H            1    LIG   0.0000
  22 H           -0.2195    -0.5179    -0.8073 H            1    LIG   0.0000
  23 H           -0.2655    -0.4777     0.8245 H            1    LIG   0.0000
  24 H           -0.4722     1.3092     1.9780 H            1    LIG   0.0000
  25 H            0.3162     2.6997     1.6441 H            1    LIG   0.0000
  26 H           -4.7797     2.9678     1.2509 H            1    LIG   0.0000
  27 H           -3.5778     5.2148     0.7115 H            1    LIG   0.0000
@<TRIPOS>BOND
   1        1        2 1
   2        2        3 1
   3        3        4 1
   4        4        5 1
   5        5        3 1
   6        5        6 1
   7        6        7 1
   8        7        8 1
   9        8        9 2
  10        9       10 1
  11       10       11 2
  12       11        7 1
  13       11       12 1
  14       12       13 ar
  15       12       14 ar
  16        3       15 1
  17        5       16 1
  18        1       17 1
  19        1       18 1
  20        1       19 1
  21        2       20 1
  22        2       21 1
  23        4       22 1
  24        4       23 1
  25        6       24 1
  26        6       25 1
  27        9       26 1
  28       10       27 1

@<TRIPOS>MOLECULE

  27   28
SMALL
USER_CHARGES
@<TRIPOS>ATOM
   1 C1           3.3428    -0.0198    -1.1902 C.3          1    LIG   0.0000
   2 C2           2.0290     0.7323    -1.3268 C.3          1    LIG   0.0000
   3 C3           1.3284     0.7773     0.0214 C.3          1    LIG   0.0000
   4 C4           0.0389     0.0063     0.0041 C.3          1    LIG   0.0000
   5 C5           0.0179     1.5072    -0.0335 C.3          1    LIG   0.0000
   6 C6          -0.3836     2.0609     1.3245 C.3          1    LIG   0.0000
   7 N7          -1.6684     2.7612     1.2070 N.pl3        1    LIG   0.0000
   8 N8          -1.8207     4.0360     0.9239 N.2          1    LIG   0.0000
   9 C9          -3.0973     4.3429     0.8987 C.2          1    LIG   0.0000
  10 C10         -3.8092     3.1567     1.1862 C.2          1    LIG   0.0000
  11 C11         -2.8821     2.1750     1.3742 C.2          1    LIG   0.0000
  12 N12         -3.1302     0.8313     1.6798 N.2          1    LIG   1.0000
  13 O13         -2.2066     0.0626     1.8219 O.co2        1    LIG   0.0000
  14 O14         -4.2776     0.4355     1.8028 O.co2        1    LIG  -1.0000
  15 H            1.8738     0.8064     0.8591 H            1    LIG   0.0000
  16 H           -0.2555     1.9835    -0.8692 H            1    LIG   0.0000
  17 H            3.8036    -0.0494    -2.0772 H            1    LIG   0.0000
  18 H            3.9269     0.4473    -0.5265 H            1    LIG   0.0000
  19 H            3.1621    -0.9522    -0.8772 H            1    LIG   0.0000
  20 H            2.2097     1.6647    -1.6398 H            1    LIG   0.0000
  21 H            1.4449     0.2652    -1.9905 H            1    LIG   0.0000
  22 H           -0.2195    -0.5179    -0.8073 H            1    LIG   0.0000
  23 H           -0.2655    -0.4777     0.8245 H            1    LIG   0.0000
  24 H           -0.4722     1.3092     1.9780 H            1    LIG   0.0000
  25 H            0.3162     2.6997     1.6441 H            1    LIG   0.0000
  26 H           -3.4902     5.2433     0.7119 H            1    LIG   0.0000
  27 H           -4.8026     3.0565     1.2413 H            1    LIG   0.0000
@<TRIPOS>BOND
   1        1        2 1
   2        2        3 1
   3        3        4 1
   4        4        5 1
   5        5        3 1
   6        5        6 1
   7        6        7 1
   8        7        8 1
   9        8        9 2
  10        9       10 1
  11       10       11 2
  12       11        7 1
  13       11       12 1
  14       12       13 ar
  15       12       14 ar
  16        3       15 1
  17        5       16 1
  18        1       17 1
  19        1       18 1
  20        1       19 1
  21        2       20 1
  22        2       21 1
  23        4       22 1
  24        4       23 1
  25        6       24 1
  26        6       25 1
  27        9       26 1
  28       10       27 1

@<TRIPOS>MOLECULE

  27   28
SMALL
USER_CHARGES
@<TRIPOS>ATOM
   1 C1           3.3428    -0.0198    -1.1902 C.3          1    LIG   0.0000
   2 C2           2.0290     0.7323    -1.3268 C.3          1    LIG   0.0000
   3 C3           1.3284     0.7773     0.0214 C.3          1    LIG   0.0000
   4 C4           0.0389     0.0063     0.0041 C.3          1    LIG   0.0000
   5 C5           0.0179     1.5072    -0.0335 C.3          1    LIG   0.0000
   6 C6          -0.3836     2.0609     1.3245 C.3          1    LIG   0.0000
   7 N7          -1.8272     2.3266     1.3372 N.pl3        1    LIG   0.0000
   8 N8          -2.7677     1.4519     1.0560 N.2          1    LIG   0.0000
   9 C9          -3.9505     2.0133     1.1576 C.2          1    LIG   0.0000
  10 C10         -3.7347     3.3561     1.5406 C.2          1    LIG   0.0000
  11 C11         -2.3862     3.5247     1.6483 C.2          1    LIG   0.0000
  12 N12         -1.7112     4.6980     2.0066 N.2          1    LIG   1.0000
  13 O13         -0.6886     5.0055     1.4376 O.co2        1    LIG   0.0000
  14 O14         -2.1542     5.4102     2.8926 O.co2        1    LIG  -1.0000
  15 H            1.8738     0.8064     0.8591 H            1    LIG   0.0000
  16 H           -0.2555     1.9835    -0.8692 H            1    LIG   0.0000
  17 H            3.8036    -0.0494    -2.0772 H            1    LIG   0.0000
  18 H            3.9269     0.4473    -0.5265 H            1    LIG   0.0000
  19 H            3.1621    -0.9522    -0.8772 H            1    LIG   0.0000
  20 H            2.2097     1.6647    -1.6398 H            1    LIG   0.0000
  21 H            1.4449     0.2652    -1.9905 H            1    LIG   0.0000
  22 H           -0.2195    -0.5179    -0.8073 H            1    LIG   0.0000
  23 H           -0.2655    -0.4777     0.8245 H            1    LIG   0.0000
  24 H           -0.1612     1.3938     2.0354 H            1    LIG   0.0000
  25 H            0.1134     2.9111     1.4979 H            1    LIG   0.0000
  26 H           -4.8343     1.5746     0.9951 H            1    LIG   0.0000
  27 H           -4.4367     4.0499     1.7018 H            1    LIG   0.0000
@<TRIPOS>BOND
   1        1        2 1
   2        2        3 1
   3        3        4 1
   4        4        5 1
   5        5        3 1
   6        5        6 1
   7        6        7 1
   8        7        8 1
   9        8        9 2
  10        9       10 1
  11       10       11 2
  12       11        7 1
  13       11       12 1
  14       12       13 ar
  15       12       14 ar
  16        3       15 1
  17        5       16 1
  18        1       17 1
  19        1       18 1
  20        1       19 1
  21        2       20 1
  22        2       21 1
  23        4       22 1
  24        4       23 1
  25        6       24 1
  26        6       25 1
  27        9       26 1
  28       10       27 1

@<TRIPOS>MOLECULE

  27   28
SMALL
USER_CHARGES
@<TRIPOS>ATOM
   1 C1           3.0481    -0.3954    -1.3308 C.3          1    LIG   0.0000
   2 C2           2.0290     0.7323    -1.3268 C.3          1    LIG   0.0000
   3 C3           1.3284     0.7773     0.0214 C.3          1    LIG   0.0000
   4 C4           0.0389     0.0063     0.0041 C.3          1    LIG   0.0000
   5 C5           0.0179     1.5072    -0.0335 C.3          1    LIG   0.0000
   6 C6          -0.3836     2.0609     1.3245 C.3          1    LIG   0.0000
   7 N7          -1.8272     2.3266     1.3372 N.pl3        1    LIG   0.0000
   8 N8          -2.7677     1.4519     1.0560 N.2          1    LIG   0.0000
   9 C9          -3.9505     2.0133     1.1576 C.2          1    LIG   0.0000
  10 C10         -3.7347     3.3561     1.5406 C.2          1    LIG   0.0000
  11 C11         -2.3862     3.5247     1.6483 C.2          1    LIG   0.0000
  12 N12         -1.7112     4.6980     2.0066 N.2          1    LIG   1.0000
  13 O13         -0.7456     4.6424     2.7336 O.co2        1    LIG   0.0000
  14 O14         -2.0968     5.7762     1.5859 O.co2        1    LIG  -1.0000
  15 H            1.8738     0.8064     0.8591 H            1    LIG   0.0000
  16 H           -0.2555     1.9835    -0.8692 H            1    LIG   0.0000
  17 H            3.5089    -0.4250    -2.2178 H            1    LIG   0.0000
  18 H            3.7227    -0.2377    -0.6097 H            1    LIG   0.0000
  19 H            2.5830    -1.2655    -1.1677 H            1    LIG   0.0000
  20 H            2.4940     1.6024    -1.4899 H            1    LIG   0.0000
  21 H            1.3543     0.5746    -2.0479 H            1    LIG   0.0000
  22 H           -0.2195    -0.5179    -0.8073 H            1    LIG   0.0000
  23 H           -0.2655    -0.4777     0.8245 H            1    LIG   0.0000
  24 H           -0.1612     1.3938     2.0354 H            1    LIG   0.0000
  25 H            0.1134     2.9111     1.4979 H            1    LIG   0.0000
  26 H           -4.8343     1.5746     0.9951 H            1    LIG   0.0000
  27 H           -4.4367     4.0499     1.7018 H            1    LIG   0.0000
@<TRIPOS>BOND
   1        1        2 1
   2        2        3 1
   3        3        4 1
   4        4        5 1
   5        5        3 1
   6        5        6 1
   7        6        7 1
   8        7        8 1
   9        8        9 2
  10        9       10 1
  11       10       11 2
  12       11        7 1
  13       11       12 1
  14       12       13 ar
  15       12       14 ar
  16        3       15 1
  17        5       16 1
  18        1       17 1
  19        1       18 1
  20        1       19 1
  21        2       20 1
  22        2       21 1
  23        4       22 1
  24        4       23 1
  25        6       24 1
  26        6       25 1
  27        9       26 1
  28       10       27 1

@<TRIPOS>MOLECULE

  27   28
SMALL
USER_CHARGES
@<TRIPOS>ATOM
   1 C1           3.3428    -0.0198    -1.1902 C.3          1    LIG   0.0000
   2 C2           2.0290     0.7323    -1.3268 C.3          1    LIG   0.0000
   3 C3           1.3284     0.7773     0.0214 C.3          1    LIG   0.0000
   4 C4           0.0389     0.0063     0.0041 C.3          1    LIG   0.0000
   5 C5           0.0179     1.5072    -0.0335 C.3          1    LIG   0.0000
   6 C6          -0.3836     2.0609     1.3245 C.3          1    LIG   0.0000
   7 N7          -1.8272     2.3266     1.3372 N.pl3        1    LIG   0.0000
   8 N8          -2.4734     3.0789     0.4740 N.2          1    LIG   0.0000
   9 C9          -3.7520     3.1101     0.7716 C.2          1    LIG   0.0000
  10 C10         -3.9252     2.3034     1.9186 C.2          1    LIG   0.0000
  11 C11         -2.6945     1.8208     2.2518 C.2          1    LIG   0.0000
  12 N12         -2.3851     0.9739     3.3231 N.2          1    LIG   1.0000
  13 O13         -1.3752     1.1543     3.9648 O.co2        1    LIG   0.0000
  14 O14         -3.1337     0.0542     3.6096 O.co2        1    LIG  -1.0000
  15 H            1.8738     0.8064     0.8591 H            1    LIG   0.0000
  16 H           -0.2555     1.9835    -0.8692 H            1    LIG   0.0000
  17 H            3.8036    -0.0494    -2.0772 H            1    LIG   0.0000
  18 H            3.9269     0.4473    -0.5265 H            1    LIG   0.0000
  19 H            3.1621    -0.9522    -0.8772 H            1    LIG   0.0000
  20 H            2.2097     1.6647    -1.6398 H            1    LIG   0.0000
  21 H            1.4449     0.2652    -1.9905 H            1    LIG   0.0000
  22 H           -0.2195    -0.5179    -0.8073 H            1    LIG   0.0000
  23 H           -0.2655    -0.4777     0.8245 H            1    LIG   0.0000
  24 H           -0.1612     1.3938     2.0354 H            1    LIG   0.0000
  25 H            0.1134     2.9111     1.4979 H            1    LIG   0.0000
  26 H           -4.4661     3.6091     0.2806 H            1    LIG   0.0000
  27 H           -4.7855     2.1214     2.3947 H            1    LIG   0.0000
@<TRIPOS>BOND
   1        1        2 1
   2        2        3 1
   3        3        4 1
   4        4        5 1
   5        5        3 1
   6        5        6 1
   7        6        7 1
   8        7        8 1
   9        8        9 2
  10        9       10 1
  11       10       11 2
  12       11        7 1
  13       11       12 1
  14       12       13 ar
  15       12       14 ar
  16        3       15 1
  17        5       16 1
  18        1       17 1
  19        1       18 1
  20        1       19 1
  21        2       20 1
  22        2       21 1
  23        4       22 1
  24        4       23 1
  25        6       24 1
  26        6       25 1
  27        9       26 1
  28       10       27 1

@<TRIPOS>MOLECULE

  27   28
SMALL
USER_CHARGES
@<TRIPOS>ATOM
   1 C1           3.5072     0.4447    -1.1203 C.3          1    LIG   0.0000
   2 C2           2.0290     0.7323    -1.3268 C.3          1    LIG   0.0000
   3 C3           1.3284     0.7773     0.0214 C.3          1    LIG   0.0000
   4 C4           0.0389     0.0063     0.0041 C.3          1    LIG   0.0000
   5 C5           0.0179     1.5072    -0.0335 C.3          1    LIG   0.0000
   6 C6          -0.3836     2.0609     1.3245 C.3          1    LIG   0.0000
   7 N7          -1.3702     3.1328     1.1436 N.pl3        1    LIG   0.0000
   8 N8          -2.6748     2.9731     1.1117 N.2          1    LIG   0.0000
   9 C9          -3.2665     4.1315     0.9319 C.2          1    LIG   0.0000
  10 C10         -2.2452     5.1043     0.8484 C.2          1    LIG   0.0000
  11 C11         -1.0597     4.4457     0.9872 C.2          1    LIG   0.0000
  12 N12          0.2222     5.0088     0.9709 N.2          1    LIG   1.0000
  13 O13          1.1266     4.4379     0.4050 O.co2        1    LIG   0.0000
  14 O14          0.4272     6.0750     1.5273 O.co2        1    LIG  -1.0000
  15 H            1.8738     0.8064     0.8591 H            1    LIG   0.0000
  16 H           -0.2555     1.9835    -0.8692 H            1    LIG   0.0000
  17 H            3.9681     0.4151    -2.0073 H            1    LIG   0.0000
  18 H            3.9118     1.1661    -0.5583 H            1    LIG   0.0000
  19 H            3.6141    -0.4363    -0.6595 H            1    LIG   0.0000
  20 H            1.9220     1.6134    -1.7875 H            1    LIG   0.0000
  21 H            1.6243     0.0109    -1.8888 H            1    LIG   0.0000
  22 H           -0.2195    -0.5179    -0.8073 H            1    LIG   0.0000
  23 H           -0.2655    -0.4777     0.8245 H            1    LIG   0.0000
  24 H           -0.7832     1.3299     1.8776 H            1    LIG   0.0000
  25 H            0.4240     2.4259     1.7876 H            1    LIG   0.0000
  26 H           -4.2511     4.2940     0.8665 H            1    LIG   0.0000
  27 H           -2.3684     6.0874     0.7133 H            1    LIG   0.0000
@<TRIPOS>BOND
   1        1        2 1
   2        2        3 1
   3        3        4 1
   4        4        5 1
   5        5        3 1
   6        5        6 1
   7        6        7 1
   8        7        8 1
   9        8        9 2
  10        9       10 1
  11       10       11 2
  12       11        7 1
  13       11       12 1
  14       12       13 ar
  15       12       14 ar
  16        3       15 1
  17        5       16 1
  18        1       17 1
  19        1       18 1
  20        1       19 1
  21        2       20 1
  22        2       21 1
  23        4       22 1
  24        4       23 1
  25        6       24 1
  26        6       25 1
  27        9       26 1
  28       10       27 1

@<TRIPOS>MOLECULE

  27   28
SMALL
USER_CHARGES
@<TRIPOS>ATOM
   1 C1           3.5072     0.4447    -1.1203 C.3          1    LIG   0.0000
   2 C2           2.0290     0.7323    -1.3268 C.3          1    LIG   0.0000
   3 C3           1.3284     0.7773     0.0214 C.3          1    LIG   0.0000
   4 C4           0.0389     0.0063     0.0041 C.3          1    LIG   0.0000
   5 C5           0.0179     1.5072    -0.0335 C.3          1    LIG   0.0000
   6 C6          -0.3836     2.0609     1.3245 C.3          1    LIG   0.0000
   7 N7          -1.3702     3.1328     1.1436 N.pl3        1    LIG   0.0000
   8 N8          -2.5071     3.0230     0.4925 N.2          1    LIG   0.0000
   9 C9          -3.1522     4.1666     0.5157 C.2          1    LIG   0.0000
  10 C10         -2.3535     5.0723     1.2493 C.2          1    LIG   0.0000
  11 C11         -1.2366     4.3920     1.6345 C.2          1    LIG   0.0000
  12 N12         -0.1650     4.8910     2.3851 N.2          1    LIG   1.0000
  13 O13          0.7698     4.1723     2.6568 O.co2        1    LIG   0.0000
  14 O14         -0.1738     6.0503     2.7650 O.co2        1    LIG  -1.0000
  15 H            1.8738     0.8064     0.8591 H            1    LIG   0.0000
  16 H           -0.2555     1.9835    -0.8692 H            1    LIG   0.0000
  17 H            3.9681     0.4151    -2.0073 H            1    LIG   0.0000
  18 H            3.9118     1.1661    -0.5583 H            1    LIG   0.0000
  19 H            3.6141    -0.4363    -0.6595 H            1    LIG   0.0000
  20 H            1.9220     1.6134    -1.7875 H            1    LIG   0.0000
  21 H            1.6243     0.0109    -1.8888 H            1    LIG   0.0000
  22 H           -0.2195    -0.5179    -0.8073 H            1    LIG   0.0000
  23 H           -0.2655    -0.4777     0.8245 H            1    LIG   0.0000
  24 H           -0.7832     1.3299     1.8776 H            1    LIG   0.0000
  25 H            0.4240     2.4259     1.7876 H            1    LIG   0.0000
  26 H           -4.0386     4.3594     0.0949 H            1    LIG   0.0000
  27 H           -2.5666     6.0289     1.4478 H            1    LIG   0.0000
@<TRIPOS>BOND
   1        1        2 1
   2        2        3 1
   3        3        4 1
   4        4        5 1
   5        5        3 1
   6        5        6 1
   7        6        7 1
   8        7        8 1
   9        8        9 2
  10        9       10 1
  11       10       11 2
  12       11        7 1
  13       11       12 1
  14       12       13 ar
  15       12       14 ar
  16        3       15 1
  17        5       16 1
  18        1       17 1
  19        1       18 1
  20        1       19 1
  21        2       20 1
  22        2       21 1
  23        4       22 1
  24        4       23 1
  25        6       24 1
  26        6       25 1
  27        9       26 1
  28       10       27 1

@<TRIPOS>MOLECULE

  27   28
SMALL
USER_CHARGES
@<TRIPOS>ATOM
   1 C1           3.5072     0.4447    -1.1203 C.3          1    LIG   0.0000
   2 C2           2.0290     0.7323    -1.3268 C.3          1    LIG   0.0000
   3 C3           1.3284     0.7773     0.0214 C.3          1    LIG   0.0000
   4 C4           0.0389     0.0063     0.0041 C.3          1    LIG   0.0000
   5 C5           0.0179     1.5072    -0.0335 C.3          1    LIG   0.0000
   6 C6          -0.3836     2.0609     1.3245 C.3          1    LIG   0.0000
   7 N7          -1.3702     3.1328     1.1436 N.pl3        1    LIG   0.0000
   8 N8          -1.0926     4.4084     0.9873 N.2          1    LIG   0.0000
   9 C9          -2.2021     5.0983     0.8554 C.2          1    LIG   0.0000
  10 C10         -3.2694     4.1754     0.9305 C.2          1    LIG   0.0000
  11 C11         -2.7146     2.9432     1.1105 C.2          1    LIG   0.0000
  12 N12         -3.3939     1.7254     1.2373 N.2          1    LIG   1.0000
  13 O13         -3.0148     0.9017     2.0385 O.co2        1    LIG   0.0000
  14 O14         -4.3680     1.4948     0.5400 O.co2        1    LIG  -1.0000
  15 H            1.8738     0.8064     0.8591 H            1    LIG   0.0000
  16 H           -0.2555     1.9835    -0.8692 H            1    LIG   0.0000
  17 H            3.9681     0.4151    -2.0073 H            1    LIG   0.0000
  18 H            3.9118     1.1661    -0.5583 H            1    LIG   0.0000
  19 H            3.6141    -0.4363    -0.6595 H            1    LIG   0.0000
  20 H            1.9220     1.6134    -1.7875 H            1    LIG   0.0000
  21 H            1.6243     0.0109    -1.8888 H            1    LIG   0.0000
  22 H           -0.2195    -0.5179    -0.8073 H            1    LIG   0.0000
  23 H           -0.2655    -0.4777     0.8245 H            1    LIG   0.0000
  24 H           -0.7832     1.3299     1.8776 H            1    LIG   0.0000
  25 H            0.4240     2.4259     1.7876 H            1    LIG   0.0000
  26 H           -2.2772     6.0871     0.7265 H            1    LIG   0.0000
  27 H           -4.2448     4.3858     0.8642 H            1    LIG   0.0000
@<TRIPOS>BOND
   1        1        2 1
   2        2        3 1
   3        3        4 1
   4        4        5 1
   5        5        3 1
   6        5        6 1
   7        6        7 1
   8        7        8 1
   9        8        9 2
  10        9       10 1
  11       10       11 2
  12       11        7 1
  13       11       12 1
  14       12       13 ar
  15       12       14 ar
  16        3       15 1
  17        5       16 1
  18        1       17 1
  19        1       18 1
  20        1       19 1
  21        2       20 1
  22        2       21 1
  23        4       22 1
  24        4       23 1
  25        6       24 1
  26        6       25 1
  27        9       26 1
  28       10       27 1

@<TRIPOS>MOLECULE

  27   28
SMALL
USER_CHARGES
@<TRIPOS>ATOM
   1 C1           3.5072     0.4447    -1.1203 C.3          1    LIG   0.0000
   2 C2           2.0290     0.7323    -1.3268 C.3          1    LIG   0.0000
   3 C3           1.3284     0.7773     0.0214 C.3          1    LIG   0.0000
   4 C4           0.0389     0.0063     0.0041 C.3          1    LIG   0.0000
   5 C5           0.0179     1.5072    -0.0335 C.3          1    LIG   0.0000
   6 C6          -0.3836     2.0609     1.3245 C.3          1    LIG   0.0000
   7 N7          -1.3702     3.1328     1.1436 N.pl3        1    LIG   0.0000
   8 N8          -1.0926     4.4084     0.9873 N.2          1    LIG   0.0000
   9 C9          -2.2021     5.0983     0.8554 C.2          1    LIG   0.0000
  10 C10         -3.2694     4.1754     0.9305 C.2          1    LIG   0.0000
  11 C11         -2.7146     2.9432     1.1105 C.2          1    LIG   0.0000
  12 N12         -3.3939     1.7254     1.2373 N.2          1    LIG   1.0000
  13 O13         -2.9578     0.7310     0.7034 O.co2        1    LIG   0.0000
  14 O14         -4.4254     1.6670     1.8861 O.co2        1    LIG  -1.0000
  15 H            1.8738     0.8064     0.8591 H            1    LIG   0.0000
  16 H           -0.2555     1.9835    -0.8692 H            1    LIG   0.0000
  17 H            3.9681     0.4151    -2.0073 H            1    LIG   0.0000
  18 H            3.9118     1.1661    -0.5583 H            1    LIG   0.0000
  19 H            3.6141    -0.4363    -0.6595 H            1    LIG   0.0000
  20 H            1.9220     1.6134    -1.7875 H            1    LIG   0.0000
  21 H            1.6243     0.0109    -1.8888 H            1    LIG   0.0000
  22 H           -0.2195    -0.5179    -0.8073 H            1    LIG   0.0000
  23 H           -0.2655    -0.4777     0.8245 H            1    LIG   0.0000
  24 H           -0.7832     1.3299     1.8776 H            1    LIG   0.0000
  25 H            0.4240     2.4259     1.7876 H            1    LIG   0.0000
  26 H           -2.2772     6.0871     0.7265 H            1    LIG   0.0000
  27 H           -4.2448     4.3858     0.8642 H            1    LIG   0.0000
@<TRIPOS>BOND
   1        1        2 1
   2        2        3 1
   3        3        4 1
   4        4        5 1
   5        5        3 1
   6        5        6 1
   7        6        7 1
   8        7        8 1
   9        8        9 2
  10        9       10 1
  11       10       11 2
  12       11        7 1
  13       11       12 1
  14       12       13 ar
  15       12       14 ar
  16        3       15 1
  17        5       16 1
  18        1       17 1
  19        1       18 1
  20        1       19 1
  21        2       20 1
  22        2       21 1
  23        4       22 1
  24        4       23 1
  25        6       24 1
  26        6       25 1
  27        9       26 1
  28       10       27 1

@<TRIPOS>MOLECULE

  27   28
SMALL
USER_CHARGES
@<TRIPOS>ATOM
   1 C1           3.3428    -0.0198    -1.1902 C.3          1    LIG   0.0000
   2 C2           2.0290     0.7323    -1.3268 C.3          1    LIG   0.0000
   3 C3           1.3284     0.7773     0.0214 C.3          1    LIG   0.0000
   4 C4           0.0389     0.0063     0.0041 C.3          1    LIG   0.0000
   5 C5           0.0179     1.5072    -0.0335 C.3          1    LIG   0.0000
   6 C6          -0.3836     2.0609     1.3245 C.3          1    LIG   0.0000
   7 N7          -1.3702     3.1328     1.1436 N.pl3        1    LIG   0.0000
   8 N8          -1.2110     4.1987     0.3906 N.2          1    LIG   0.0000
   9 C9          -2.2802     4.9585     0.4531 C.2          1    LIG   0.0000
  10 C10         -3.1924     4.3114     1.3165 C.2          1    LIG   0.0000
  11 C11         -2.5922     3.1613     1.7355 C.2          1    LIG   0.0000
  12 N12         -3.1271     2.2014     2.6033 N.2          1    LIG   1.0000
  13 O13         -2.4800     1.2212     2.8940 O.co2        1    LIG   0.0000
  14 O14         -4.2456     2.3534     3.0662 O.co2        1    LIG  -1.0000
  15 H            1.8738     0.8064     0.8591 H            1    LIG   0.0000
  16 H           -0.2555     1.9835    -0.8692 H            1    LIG   0.0000
  17 H            3.8036    -0.0494    -2.0772 H            1    LIG   0.0000
  18 H            3.9269     0.4473    -0.5265 H            1    LIG   0.0000
  19 H            3.1621    -0.9522    -0.8772 H            1    LIG   0.0000
  20 H            2.2097     1.6647    -1.6398 H            1    LIG   0.0000
  21 H            1.4449     0.2652    -1.9905 H            1    LIG   0.0000
  22 H           -0.2195    -0.5179    -0.8073 H            1    LIG   0.0000
  23 H           -0.2655    -0.4777     0.8245 H            1    LIG   0.0000
  24 H           -0.7832     1.3299     1.8776 H            1    LIG   0.0000
  25 H            0.4240     2.4259     1.7876 H            1    LIG   0.0000
  26 H           -2.4217     5.8282    -0.0198 H            1    LIG   0.0000
  27 H           -4.1036     4.6351     1.5714 H            1    LIG   0.0000
@<TRIPOS>BOND
   1        1        2 1
   2        2        3 1
   3        3        4 1
   4        4        5 1
   5        5        3 1
   6        5        6 1
   7        6        7 1
   8        7        8 1
   9        8        9 2
  10        9       10 1
  11       10       11 2
  12       11        7 1
  13       11       12 1
  14       12       13 ar
  15       12       14 ar
  16        3       15 1
  17        5       16 1
  18        1       17 1
  19        1       18 1
  20        1       19 1
  21        2       20 1
  22        2       21 1
  23        4       22 1
  24        4       23 1
  25        6       24 1
  26        6       25 1
  27        9       26 1
  28       10       27 1

@<TRIPOS>MOLECULE

  27   28
SMALL
USER_CHARGES
@<TRIPOS>ATOM
   1 C1           3.3428    -0.0198    -1.1902 C.3          1    LIG   0.0000
   2 C2           2.0290     0.7323    -1.3268 C.3          1    LIG   0.0000
   3 C3           1.3284     0.7773     0.0214 C.3          1    LIG   0.0000
   4 C4           0.0389     0.0063     0.0041 C.3          1    LIG   0.0000
   5 C5           0.0179     1.5072    -0.0335 C.3          1    LIG   0.0000
   6 C6          -0.3836     2.0609     1.3245 C.3          1    LIG   0.0000
   7 N7          -1.3702     3.1328     1.1436 N.pl3        1    LIG   0.0000
   8 N8          -1.2603     4.3584     1.6065 N.2          1    LIG   0.0000
   9 C9          -2.3165     5.0632     1.2715 C.2          1    LIG   0.0000
  10 C10         -3.1612     4.2074     0.5295 C.2          1    LIG   0.0000
  11 C11         -2.5377     2.9969     0.4633 C.2          1    LIG   0.0000
  12 N12         -3.0067     1.8432    -0.1768 N.2          1    LIG   1.0000
  13 O13         -2.3468     0.8292    -0.1563 O.co2        1    LIG   0.0000
  14 O14         -4.0807     1.8604    -0.7553 O.co2        1    LIG  -1.0000
  15 H            1.8738     0.8064     0.8591 H            1    LIG   0.0000
  16 H           -0.2555     1.9835    -0.8692 H            1    LIG   0.0000
  17 H            3.8036    -0.0494    -2.0772 H            1    LIG   0.0000
  18 H            3.9269     0.4473    -0.5265 H            1    LIG   0.0000
  19 H            3.1621    -0.9522    -0.8772 H            1    LIG   0.0000
  20 H            2.2097     1.6647    -1.6398 H            1    LIG   0.0000
  21 H            1.4449     0.2652    -1.9905 H            1    LIG   0.0000
  22 H           -0.2195    -0.5179    -0.8073 H            1    LIG   0.0000
  23 H           -0.2655    -0.4777     0.8245 H            1    LIG   0.0000
  24 H           -0.7832     1.3299     1.8776 H            1    LIG   0.0000
  25 H            0.4240     2.4259     1.7876 H            1    LIG   0.0000
  26 H           -2.4897     6.0217     1.4981 H            1    LIG   0.0000
  27 H           -4.0466     4.4443     0.1296 H            1    LIG   0.0000
@<TRIPOS>BOND
   1        1        2 1
   2        2        3 1
   3        3        4 1
   4        4        5 1
   5        5        3 1
   6        5        6 1
   7        6        7 1
   8        7        8 1
   9        8        9 2
  10        9       10 1
  11       10       11 2
  12       11        7 1
  13       11       12 1
  14       12       13 ar
  15       12       14 ar
  16        3       15 1
  17        5       16 1
  18        1       17 1
  19        1       18 1
  20        1       19 1
  21        2       20 1
  22        2       21 1
  23        4       22 1
  24        4       23 1
  25        6       24 1
  26        6       25 1
  27        9       26 1
  28       10       27 1

