@<TRIPOS>MOLECULE
*****
 27 28 0 0 0
SMALL
USER_CHARGES

@<TRIPOS>ATOM
      1 C1          3.0481   -0.3954   -1.3308 C.3     1  LIG1        0.0000
      2 C2          2.0290    0.7323   -1.3268 C.3     1  LIG1        0.0000
      3 C3          1.3284    0.7773    0.0214 C.3     1  LIG1        0.0000
      4 C4          0.0389    0.0063    0.0041 C.3     1  LIG1        0.0000
      5 C5          0.0179    1.5072   -0.0335 C.3     1  LIG1        0.0000
      6 C6         -0.3836    2.0609    1.3245 C.3     1  LIG1        0.0000
      7 N7         -1.8272    2.3266    1.3372 N.pl3   1  LIG1        0.0000
      8 N8         -2.7677    1.4519    1.0560 N.2     1  LIG1        0.0000
      9 C9         -3.9505    2.0133    1.1576 C.2     1  LIG1        0.0000
     10 C10        -3.7347    3.3561    1.5406 C.2     1  LIG1        0.0000
     11 C11        -2.3862    3.5247    1.6483 C.2     1  LIG1        0.0000
     12 N12        -1.7112    4.6980    2.0066 N.pl3   1  LIG1        1.0000
     13 O13        -0.7456    4.6424    2.7336 O.2     1  LIG1        0.0000
     14 O14        -2.0968    5.7762    1.5859 O.2     1  LIG1       -1.0000
     15 H           1.8738    0.8064    0.8591 H       1  LIG1        0.0000
     16 H          -0.2555    1.9835   -0.8692 H       1  LIG1        0.0000
     17 H           3.5089   -0.4250   -2.2178 H       1  LIG1        0.0000
     18 H           3.7227   -0.2377   -0.6097 H       1  LIG1        0.0000
     19 H           2.5830   -1.2655   -1.1677 H       1  LIG1        0.0000
     20 H           2.4940    1.6024   -1.4899 H       1  LIG1        0.0000
     21 H           1.3543    0.5746   -2.0479 H       1  LIG1        0.0000
     22 H          -0.2195   -0.5179   -0.8073 H       1  LIG1        0.0000
     23 H          -0.2655   -0.4777    0.8245 H       1  LIG1        0.0000
     24 H          -0.1612    1.3938    2.0354 H       1  LIG1        0.0000
     25 H           0.1134    2.9111    1.4979 H       1  LIG1        0.0000
     26 H          -4.8343    1.5746    0.9951 H       1  LIG1        0.0000
     27 H          -4.4367    4.0499    1.7018 H       1  LIG1        0.0000
@<TRIPOS>BOND
     1     1     2    1
     2     2     3    1
     3     3     4    1
     4     4     5    1
     5     5     3    1
     6     5     6    1
     7     6     7    1
     8     7     8    1
     9     8     9    2
    10     9    10    1
    11    10    11    2
    12    11     7    1
    13    11    12    1
    14    12    13   ar
    15    12    14   ar
    16     3    15    1
    17     5    16    1
    18     1    17    1
    19     1    18    1
    20     1    19    1
    21     2    20    1
    22     2    21    1
    23     4    22    1
    24     4    23    1
    25     6    24    1
    26     6    25    1
    27     9    26    1
    28    10    27    1
