@<TRIPOS>MOLECULE
*****
 27 28 0 0 0
SMALL
USER_CHARGES

@<TRIPOS>ATOM
      1 C1          3.3428   -0.0198   -1.1902 C.3     1  LIG1        0.0000
      2 C2          2.0290    0.7323   -1.3268 C.3     1  LIG1        0.0000
      3 C3          1.3284    0.7773    0.0214 C.3     1  LIG1        0.0000
      4 C4          0.0389    0.0063    0.0041 C.3     1  LIG1        0.0000
      5 C5          0.0179    1.5072   -0.0335 C.3     1  LIG1        0.0000
      6 C6         -0.3836    2.0609    1.3245 C.3     1  LIG1        0.0000
      7 N7         -1.6684    2.7612    1.2070 N.pl3   1  LIG1        0.0000
      8 N8         -1.8207    4.0360    0.9239 N.2     1  LIG1        0.0000
      9 C9         -3.0973    4.3429    0.8987 C.2     1  LIG1        0.0000
     10 C10        -3.8092    3.1567    1.1862 C.2     1  LIG1        0.0000
     11 C11        -2.8821    2.1750    1.3742 C.2     1  LIG1        0.0000
     12 N12        -3.1302    0.8313    1.6798 N.pl3   1  LIG1        1.0000
     13 O13        -2.2066    0.0626    1.8219 O.2     1  LIG1        0.0000
     14 O14        -4.2776    0.4355    1.8028 O.2     1  LIG1       -1.0000
     15 H           1.8738    0.8064    0.8591 H       1  LIG1        0.0000
     16 H          -0.2555    1.9835   -0.8692 H       1  LIG1        0.0000
     17 H           3.8036   -0.0494   -2.0772 H       1  LIG1        0.0000
     18 H           3.9269    0.4473   -0.5265 H       1  LIG1        0.0000
     19 H           3.1621   -0.9522   -0.8772 H       1  LIG1        0.0000
     20 H           2.2097    1.6647   -1.6398 H       1  LIG1        0.0000
     21 H           1.4449    0.2652   -1.9905 H       1  LIG1        0.0000
     22 H          -0.2195   -0.5179   -0.8073 H       1  LIG1        0.0000
     23 H          -0.2655   -0.4777    0.8245 H       1  LIG1        0.0000
     24 H          -0.4722    1.3092    1.9780 H       1  LIG1        0.0000
     25 H           0.3162    2.6997    1.6441 H       1  LIG1        0.0000
     26 H          -3.4902    5.2433    0.7119 H       1  LIG1        0.0000
     27 H          -4.8026    3.0565    1.2413 H       1  LIG1        0.0000
@<TRIPOS>BOND
     1     1     2    1
     2     2     3    1
     3     3     4    1
     4     4     5    1
     5     5     3    1
     6     5     6    1
     7     6     7    1
     8     7     8    1
     9     8     9    2
    10     9    10    1
    11    10    11    2
    12    11     7    1
    13    11    12    1
    14    12    13   ar
    15    12    14   ar
    16     3    15    1
    17     5    16    1
    18     1    17    1
    19     1    18    1
    20     1    19    1
    21     2    20    1
    22     2    21    1
    23     4    22    1
    24     4    23    1
    25     6    24    1
    26     6    25    1
    27     9    26    1
    28    10    27    1
