@<TRIPOS>MOLECULE
*****
 27 28 0 0 0
SMALL
USER_CHARGES

@<TRIPOS>ATOM
      1 C1          3.5072    0.4447   -1.1203 C.3     1  LIG1        0.0000
      2 C2          2.0290    0.7323   -1.3268 C.3     1  LIG1        0.0000
      3 C3          1.3284    0.7773    0.0214 C.3     1  LIG1        0.0000
      4 C4          0.0389    0.0063    0.0041 C.3     1  LIG1        0.0000
      5 C5          0.0179    1.5072   -0.0335 C.3     1  LIG1        0.0000
      6 C6         -0.3836    2.0609    1.3245 C.3     1  LIG1        0.0000
      7 N7         -1.3702    3.1328    1.1436 N.pl3   1  LIG1        0.0000
      8 N8         -2.6748    2.9731    1.1117 N.2     1  LIG1        0.0000
      9 C9         -3.2665    4.1315    0.9319 C.2     1  LIG1        0.0000
     10 C10        -2.2452    5.1043    0.8484 C.2     1  LIG1        0.0000
     11 C11        -1.0597    4.4457    0.9872 C.2     1  LIG1        0.0000
     12 N12         0.2222    5.0088    0.9709 N.pl3   1  LIG1        1.0000
     13 O13         1.1266    4.4379    0.4050 O.2     1  LIG1        0.0000
     14 O14         0.4272    6.0750    1.5273 O.2     1  LIG1       -1.0000
     15 H           1.8738    0.8064    0.8591 H       1  LIG1        0.0000
     16 H          -0.2555    1.9835   -0.8692 H       1  LIG1        0.0000
     17 H           3.9681    0.4151   -2.0073 H       1  LIG1        0.0000
     18 H           3.9118    1.1661   -0.5583 H       1  LIG1        0.0000
     19 H           3.6141   -0.4363   -0.6595 H       1  LIG1        0.0000
     20 H           1.9220    1.6134   -1.7875 H       1  LIG1        0.0000
     21 H           1.6243    0.0109   -1.8888 H       1  LIG1        0.0000
     22 H          -0.2195   -0.5179   -0.8073 H       1  LIG1        0.0000
     23 H          -0.2655   -0.4777    0.8245 H       1  LIG1        0.0000
     24 H          -0.7832    1.3299    1.8776 H       1  LIG1        0.0000
     25 H           0.4240    2.4259    1.7876 H       1  LIG1        0.0000
     26 H          -4.2511    4.2940    0.8665 H       1  LIG1        0.0000
     27 H          -2.3684    6.0874    0.7133 H       1  LIG1        0.0000
@<TRIPOS>BOND
     1     1     2    1
     2     2     3    1
     3     3     4    1
     4     4     5    1
     5     5     3    1
     6     5     6    1
     7     6     7    1
     8     7     8    1
     9     8     9    2
    10     9    10    1
    11    10    11    2
    12    11     7    1
    13    11    12    1
    14    12    13   ar
    15    12    14   ar
    16     3    15    1
    17     5    16    1
    18     1    17    1
    19     1    18    1
    20     1    19    1
    21     2    20    1
    22     2    21    1
    23     4    22    1
    24     4    23    1
    25     6    24    1
    26     6    25    1
    27     9    26    1
    28    10    27    1
