@<TRIPOS>MOLECULE

  29   29
SMALL
USER_CHARGES
@<TRIPOS>ATOM
   1 C1           1.7509    -0.0531    -1.5059 C.3          1    LIG   0.0000
   2 C2           1.9500    -0.8775    -0.2446 C.2          1    LIG   0.0000
   3 C3           1.6038    -0.3921     0.9107 C.2          1    LIG   0.0000
   4 C4           1.0000     1.0000     1.0000 C.3          1    LIG   0.0000
   5 N5           1.8487     1.8487     1.8487 N.am         1    LIG   0.0000
   6 C6           2.9863     2.4124     1.3339 C.2          1    LIG   0.0000
   7 O7           3.2899     2.2133     0.1901 O.2          1    LIG   0.0000
   8 C8           3.8233     3.2494     2.1709 C.ar         1    LIG   0.0000
   9 C9           5.1475     3.4725     1.8081 C.ar         1    LIG   0.0000
  10 C10          5.9468     4.2760     2.6145 C.ar         1    LIG   0.0000
  11 C11          5.4200     4.8449     3.7690 C.ar         1    LIG   0.0000
  12 C12          6.3002     5.7211     4.6442 C.3          1    LIG   0.0000
  13 F13          6.9077     4.9679     5.5567 F            1    LIG   0.0000
  14 C14          4.0939     4.6175     4.1239 C.ar         1    LIG   0.0000
  15 C15          3.2877     3.8154     3.3236 C.ar         1    LIG   0.0000
  16 H            2.0684    -0.5740    -2.2982 H            1    LIG   0.0000
  17 H            0.7800     0.1606    -1.6147 H            1    LIG   0.0000
  18 H            2.2732     0.7967    -1.4346 H            1    LIG   0.0000
  19 H            2.3472    -1.7933    -0.3033 H            1    LIG   0.0000
  20 H            1.7348    -0.9345     1.7405 H            1    LIG   0.0000
  21 H            0.9412     1.3973     0.0842 H            1    LIG   0.0000
  22 H            0.0842     0.9412     1.3973 H            1    LIG   0.0000
  23 H            1.5957     2.0146     2.8018 H            1    LIG   0.0000
  24 H            5.5206     3.0599     0.9770 H            1    LIG   0.0000
  25 H            6.9002     4.4446     2.3641 H            1    LIG   0.0000
  26 H            6.9866     6.1762     4.0770 H            1    LIG   0.0000
  27 H            5.7363     6.4088     5.1014 H            1    LIG   0.0000
  28 H            3.7207     5.0307     4.9545 H            1    LIG   0.0000
  29 H            2.3342     3.6474     3.5735 H            1    LIG   0.0000
@<TRIPOS>BOND
   1        1        2 1
   2        2        3 2
   3        3        4 1
   4        4        5 1
   5        5        6 am
   6        6        7 2
   7        6        8 1
   8        8        9 ar
   9        9       10 ar
  10       10       11 ar
  11       11       12 1
  12       12       13 1
  13       11       14 ar
  14       14       15 ar
  15       15        8 ar
  16        1       16 1
  17        1       17 1
  18        1       18 1
  19        2       19 1
  20        3       20 1
  21        4       21 1
  22        4       22 1
  23        5       23 1
  24        9       24 1
  25       10       25 1
  26       12       26 1
  27       12       27 1
  28       14       28 1
  29       15       29 1

@<TRIPOS>MOLECULE

  29   29
SMALL
USER_CHARGES
@<TRIPOS>ATOM
   1 C1          -0.4692    -1.2343     1.8954 C.3          1    LIG   0.0000
   2 C2           0.9265    -1.4221     1.3234 C.2          1    LIG   0.0000
   3 C3           1.6038    -0.3921     0.9107 C.2          1    LIG   0.0000
   4 C4           1.0000     1.0000     1.0000 C.3          1    LIG   0.0000
   5 N5           1.8487     1.8487     1.8487 N.am         1    LIG   0.0000
   6 C6           2.9863     2.4124     1.3339 C.2          1    LIG   0.0000
   7 O7           3.2899     2.2133     0.1901 O.2          1    LIG   0.0000
   8 C8           3.8233     3.2494     2.1709 C.ar         1    LIG   0.0000
   9 C9           5.1475     3.4725     1.8081 C.ar         1    LIG   0.0000
  10 C10          5.9468     4.2760     2.6145 C.ar         1    LIG   0.0000
  11 C11          5.4200     4.8449     3.7690 C.ar         1    LIG   0.0000
  12 C12          6.3002     5.7211     4.6442 C.3          1    LIG   0.0000
  13 F13          6.9077     4.9679     5.5567 F            1    LIG   0.0000
  14 C14          4.0939     4.6175     4.1239 C.ar         1    LIG   0.0000
  15 C15          3.2877     3.8154     3.3236 C.ar         1    LIG   0.0000
  16 H           -0.8426    -2.1230     2.1617 H            1    LIG   0.0000
  17 H           -0.4235    -0.6382     2.6970 H            1    LIG   0.0000
  18 H           -1.0596    -0.8183     1.2038 H            1    LIG   0.0000
  19 H            1.3238    -2.3379     1.2647 H            1    LIG   0.0000
  20 H            2.5221    -0.5156     0.5344 H            1    LIG   0.0000
  21 H            0.9412     1.3973     0.0842 H            1    LIG   0.0000
  22 H            0.0842     0.9412     1.3973 H            1    LIG   0.0000
  23 H            1.5957     2.0146     2.8018 H            1    LIG   0.0000
  24 H            5.5206     3.0599     0.9770 H            1    LIG   0.0000
  25 H            6.9002     4.4446     2.3641 H            1    LIG   0.0000
  26 H            6.9866     6.1762     4.0770 H            1    LIG   0.0000
  27 H            5.7363     6.4088     5.1014 H            1    LIG   0.0000
  28 H            3.7207     5.0307     4.9545 H            1    LIG   0.0000
  29 H            2.3342     3.6474     3.5735 H            1    LIG   0.0000
@<TRIPOS>BOND
   1        1        2 1
   2        2        3 2
   3        3        4 1
   4        4        5 1
   5        5        6 am
   6        6        7 2
   7        6        8 1
   8        8        9 ar
   9        9       10 ar
  10       10       11 ar
  11       11       12 1
  12       12       13 1
  13       11       14 ar
  14       14       15 ar
  15       15        8 ar
  16        1       16 1
  17        1       17 1
  18        1       18 1
  19        2       19 1
  20        3       20 1
  21        4       21 1
  22        4       22 1
  23        5       23 1
  24        9       24 1
  25       10       25 1
  26       12       26 1
  27       12       27 1
  28       14       28 1
  29       15       29 1

@<TRIPOS>MOLECULE

  29   29
SMALL
USER_CHARGES
@<TRIPOS>ATOM
   1 C1           1.7509    -0.0531    -1.5059 C.3          1    LIG   0.0000
   2 C2           1.9500    -0.8775    -0.2446 C.2          1    LIG   0.0000
   3 C3           1.6038    -0.3921     0.9107 C.2          1    LIG   0.0000
   4 C4           1.0000     1.0000     1.0000 C.3          1    LIG   0.0000
   5 N5           1.8487     1.8487     1.8487 N.am         1    LIG   0.0000
   6 C6           2.9863     2.4124     1.3339 C.2          1    LIG   0.0000
   7 O7           3.2899     2.2133     0.1901 O.2          1    LIG   0.0000
   8 C8           3.8233     3.2494     2.1709 C.ar         1    LIG   0.0000
   9 C9           5.1475     3.4725     1.8081 C.ar         1    LIG   0.0000
  10 C10          5.9468     4.2760     2.6145 C.ar         1    LIG   0.0000
  11 C11          5.4200     4.8449     3.7690 C.ar         1    LIG   0.0000
  12 C12          6.3002     5.7211     4.6442 C.3          1    LIG   0.0000
  13 F13          6.2063     6.9855     4.2425 F            1    LIG   0.0000
  14 C14          4.0939     4.6175     4.1239 C.ar         1    LIG   0.0000
  15 C15          3.2877     3.8154     3.3236 C.ar         1    LIG   0.0000
  16 H            2.0684    -0.5740    -2.2982 H            1    LIG   0.0000
  17 H            0.7800     0.1606    -1.6147 H            1    LIG   0.0000
  18 H            2.2732     0.7967    -1.4346 H            1    LIG   0.0000
  19 H            2.3472    -1.7933    -0.3033 H            1    LIG   0.0000
  20 H            1.7348    -0.9345     1.7405 H            1    LIG   0.0000
  21 H            0.9412     1.3973     0.0842 H            1    LIG   0.0000
  22 H            0.0842     0.9412     1.3973 H            1    LIG   0.0000
  23 H            1.5957     2.0146     2.8018 H            1    LIG   0.0000
  24 H            5.5206     3.0599     0.9770 H            1    LIG   0.0000
  25 H            6.9002     4.4446     2.3641 H            1    LIG   0.0000
  26 H            6.0000     5.6504     5.5955 H            1    LIG   0.0000
  27 H            7.2503     5.4177     4.5711 H            1    LIG   0.0000
  28 H            3.7207     5.0307     4.9545 H            1    LIG   0.0000
  29 H            2.3342     3.6474     3.5735 H            1    LIG   0.0000
@<TRIPOS>BOND
   1        1        2 1
   2        2        3 2
   3        3        4 1
   4        4        5 1
   5        5        6 am
   6        6        7 2
   7        6        8 1
   8        8        9 ar
   9        9       10 ar
  10       10       11 ar
  11       11       12 1
  12       12       13 1
  13       11       14 ar
  14       14       15 ar
  15       15        8 ar
  16        1       16 1
  17        1       17 1
  18        1       18 1
  19        2       19 1
  20        3       20 1
  21        4       21 1
  22        4       22 1
  23        5       23 1
  24        9       24 1
  25       10       25 1
  26       12       26 1
  27       12       27 1
  28       14       28 1
  29       15       29 1

@<TRIPOS>MOLECULE

  29   29
SMALL
USER_CHARGES
@<TRIPOS>ATOM
   1 C1          -0.4692    -1.2343     1.8954 C.3          1    LIG   0.0000
   2 C2           0.9265    -1.4221     1.3234 C.2          1    LIG   0.0000
   3 C3           1.6038    -0.3921     0.9107 C.2          1    LIG   0.0000
   4 C4           1.0000     1.0000     1.0000 C.3          1    LIG   0.0000
   5 N5           1.8487     1.8487     1.8487 N.am         1    LIG   0.0000
   6 C6           2.9863     2.4124     1.3339 C.2          1    LIG   0.0000
   7 O7           3.2899     2.2133     0.1901 O.2          1    LIG   0.0000
   8 C8           3.8233     3.2494     2.1709 C.ar         1    LIG   0.0000
   9 C9           5.1475     3.4725     1.8081 C.ar         1    LIG   0.0000
  10 C10          5.9468     4.2760     2.6145 C.ar         1    LIG   0.0000
  11 C11          5.4200     4.8449     3.7690 C.ar         1    LIG   0.0000
  12 C12          6.3002     5.7211     4.6442 C.3          1    LIG   0.0000
  13 F13          6.2063     6.9855     4.2425 F            1    LIG   0.0000
  14 C14          4.0939     4.6175     4.1239 C.ar         1    LIG   0.0000
  15 C15          3.2877     3.8154     3.3236 C.ar         1    LIG   0.0000
  16 H           -0.8426    -2.1230     2.1617 H            1    LIG   0.0000
  17 H           -0.4235    -0.6382     2.6970 H            1    LIG   0.0000
  18 H           -1.0596    -0.8183     1.2038 H            1    LIG   0.0000
  19 H            1.3238    -2.3379     1.2647 H            1    LIG   0.0000
  20 H            2.5221    -0.5156     0.5344 H            1    LIG   0.0000
  21 H            0.9412     1.3973     0.0842 H            1    LIG   0.0000
  22 H            0.0842     0.9412     1.3973 H            1    LIG   0.0000
  23 H            1.5957     2.0146     2.8018 H            1    LIG   0.0000
  24 H            5.5206     3.0599     0.9770 H            1    LIG   0.0000
  25 H            6.9002     4.4446     2.3641 H            1    LIG   0.0000
  26 H            6.0000     5.6504     5.5955 H            1    LIG   0.0000
  27 H            7.2503     5.4177     4.5711 H            1    LIG   0.0000
  28 H            3.7207     5.0307     4.9545 H            1    LIG   0.0000
  29 H            2.3342     3.6474     3.5735 H            1    LIG   0.0000
@<TRIPOS>BOND
   1        1        2 1
   2        2        3 2
   3        3        4 1
   4        4        5 1
   5        5        6 am
   6        6        7 2
   7        6        8 1
   8        8        9 ar
   9        9       10 ar
  10       10       11 ar
  11       11       12 1
  12       12       13 1
  13       11       14 ar
  14       14       15 ar
  15       15        8 ar
  16        1       16 1
  17        1       17 1
  18        1       18 1
  19        2       19 1
  20        3       20 1
  21        4       21 1
  22        4       22 1
  23        5       23 1
  24        9       24 1
  25       10       25 1
  26       12       26 1
  27       12       27 1
  28       14       28 1
  29       15       29 1

@<TRIPOS>MOLECULE

  29   29
SMALL
USER_CHARGES
@<TRIPOS>ATOM
   1 C1           1.7509    -0.0531    -1.5059 C.3          1    LIG   0.0000
   2 C2           1.9500    -0.8775    -0.2446 C.2          1    LIG   0.0000
   3 C3           1.6038    -0.3921     0.9107 C.2          1    LIG   0.0000
   4 C4           1.0000     1.0000     1.0000 C.3          1    LIG   0.0000
   5 N5           1.8487     1.8487     1.8487 N.am         1    LIG   0.0000
   6 C6           1.7598     1.7598     3.2129 C.2          1    LIG   0.0000
   7 O7           0.9891     0.9891     3.7150 O.2          1    LIG   0.0000
   8 C8           2.5968     2.5968     4.0499 C.ar         1    LIG   0.0000
   9 C9           2.2340     2.8199     5.3742 C.ar         1    LIG   0.0000
  10 C10          3.0401     3.6240     6.1733 C.ar         1    LIG   0.0000
  11 C11          4.1932     4.1951     5.6457 C.ar         1    LIG   0.0000
  12 C12          5.0677     5.0723     6.5255 C.3          1    LIG   0.0000
  13 F13          4.6638     6.3360     6.4326 F            1    LIG   0.0000
  14 C14          4.5493     3.9658     4.3202 C.ar         1    LIG   0.0000
  15 C15          3.7492     3.1633     3.5142 C.ar         1    LIG   0.0000
  16 H            2.0684    -0.5740    -2.2982 H            1    LIG   0.0000
  17 H            0.7800     0.1606    -1.6147 H            1    LIG   0.0000
  18 H            2.2732     0.7967    -1.4346 H            1    LIG   0.0000
  19 H            2.3472    -1.7933    -0.3033 H            1    LIG   0.0000
  20 H            1.7348    -0.9345     1.7405 H            1    LIG   0.0000
  21 H            0.9412     1.3973     0.0842 H            1    LIG   0.0000
  22 H            0.0842     0.9412     1.3973 H            1    LIG   0.0000
  23 H            2.4909     2.4909     1.4303 H            1    LIG   0.0000
  24 H            1.4032     2.4070     5.7473 H            1    LIG   0.0000
  25 H            2.7905     3.7914     7.1271 H            1    LIG   0.0000
  26 H            4.9959     4.7684     7.4755 H            1    LIG   0.0000
  27 H            6.0188     5.0033     6.2244 H            1    LIG   0.0000
  28 H            5.3805     4.3781     3.9473 H            1    LIG   0.0000
  29 H            3.9992     2.9953     2.5606 H            1    LIG   0.0000
@<TRIPOS>BOND
   1        1        2 1
   2        2        3 2
   3        3        4 1
   4        4        5 1
   5        5        6 am
   6        6        7 2
   7        6        8 1
   8        8        9 ar
   9        9       10 ar
  10       10       11 ar
  11       11       12 1
  12       12       13 1
  13       11       14 ar
  14       14       15 ar
  15       15        8 ar
  16        1       16 1
  17        1       17 1
  18        1       18 1
  19        2       19 1
  20        3       20 1
  21        4       21 1
  22        4       22 1
  23        5       23 1
  24        9       24 1
  25       10       25 1
  26       12       26 1
  27       12       27 1
  28       14       28 1
  29       15       29 1

@<TRIPOS>MOLECULE

  29   29
SMALL
USER_CHARGES
@<TRIPOS>ATOM
   1 C1          -0.4692    -1.2343     1.8954 C.3          1    LIG   0.0000
   2 C2           0.9265    -1.4221     1.3234 C.2          1    LIG   0.0000
   3 C3           1.6038    -0.3921     0.9107 C.2          1    LIG   0.0000
   4 C4           1.0000     1.0000     1.0000 C.3          1    LIG   0.0000
   5 N5           1.8487     1.8487     1.8487 N.am         1    LIG   0.0000
   6 C6           1.7598     1.7598     3.2129 C.2          1    LIG   0.0000
   7 O7           0.9891     0.9891     3.7150 O.2          1    LIG   0.0000
   8 C8           2.5968     2.5968     4.0499 C.ar         1    LIG   0.0000
   9 C9           2.2340     2.8199     5.3742 C.ar         1    LIG   0.0000
  10 C10          3.0401     3.6240     6.1733 C.ar         1    LIG   0.0000
  11 C11          4.1932     4.1951     5.6457 C.ar         1    LIG   0.0000
  12 C12          5.0677     5.0723     6.5255 C.3          1    LIG   0.0000
  13 F13          4.6638     6.3360     6.4326 F            1    LIG   0.0000
  14 C14          4.5493     3.9658     4.3202 C.ar         1    LIG   0.0000
  15 C15          3.7492     3.1633     3.5142 C.ar         1    LIG   0.0000
  16 H           -0.8426    -2.1230     2.1617 H            1    LIG   0.0000
  17 H           -0.4235    -0.6382     2.6970 H            1    LIG   0.0000
  18 H           -1.0596    -0.8183     1.2038 H            1    LIG   0.0000
  19 H            1.3238    -2.3379     1.2647 H            1    LIG   0.0000
  20 H            2.5221    -0.5156     0.5344 H            1    LIG   0.0000
  21 H            0.9412     1.3973     0.0842 H            1    LIG   0.0000
  22 H            0.0842     0.9412     1.3973 H            1    LIG   0.0000
  23 H            2.4909     2.4909     1.4303 H            1    LIG   0.0000
  24 H            1.4032     2.4070     5.7473 H            1    LIG   0.0000
  25 H            2.7905     3.7914     7.1271 H            1    LIG   0.0000
  26 H            4.9959     4.7684     7.4755 H            1    LIG   0.0000
  27 H            6.0188     5.0033     6.2244 H            1    LIG   0.0000
  28 H            5.3805     4.3781     3.9473 H            1    LIG   0.0000
  29 H            3.9992     2.9953     2.5606 H            1    LIG   0.0000
@<TRIPOS>BOND
   1        1        2 1
   2        2        3 2
   3        3        4 1
   4        4        5 1
   5        5        6 am
   6        6        7 2
   7        6        8 1
   8        8        9 ar
   9        9       10 ar
  10       10       11 ar
  11       11       12 1
  12       12       13 1
  13       11       14 ar
  14       14       15 ar
  15       15        8 ar
  16        1       16 1
  17        1       17 1
  18        1       18 1
  19        2       19 1
  20        3       20 1
  21        4       21 1
  22        4       22 1
  23        5       23 1
  24        9       24 1
  25       10       25 1
  26       12       26 1
  27       12       27 1
  28       14       28 1
  29       15       29 1

@<TRIPOS>MOLECULE

  29   29
SMALL
USER_CHARGES
@<TRIPOS>ATOM
   1 C1           1.7509    -0.0531    -1.5059 C.3          1    LIG   0.0000
   2 C2           1.9500    -0.8775    -0.2446 C.2          1    LIG   0.0000
   3 C3           1.6038    -0.3921     0.9107 C.2          1    LIG   0.0000
   4 C4           1.0000     1.0000     1.0000 C.3          1    LIG   0.0000
   5 N5           1.8487     1.8487     1.8487 N.am         1    LIG   0.0000
   6 C6           1.7598     1.7598     3.2129 C.2          1    LIG   0.0000
   7 O7           0.9891     0.9891     3.7150 O.2          1    LIG   0.0000
   8 C8           2.5968     2.5968     4.0499 C.ar         1    LIG   0.0000
   9 C9           2.2340     2.8199     5.3742 C.ar         1    LIG   0.0000
  10 C10          3.0401     3.6240     6.1733 C.ar         1    LIG   0.0000
  11 C11          4.1932     4.1951     5.6457 C.ar         1    LIG   0.0000
  12 C12          5.0677     5.0723     6.5255 C.3          1    LIG   0.0000
  13 F13          5.9820     4.3204     7.1319 F            1    LIG   0.0000
  14 C14          4.5493     3.9658     4.3202 C.ar         1    LIG   0.0000
  15 C15          3.7492     3.1633     3.5142 C.ar         1    LIG   0.0000
  16 H            2.0684    -0.5740    -2.2982 H            1    LIG   0.0000
  17 H            0.7800     0.1606    -1.6147 H            1    LIG   0.0000
  18 H            2.2732     0.7967    -1.4346 H            1    LIG   0.0000
  19 H            2.3472    -1.7933    -0.3033 H            1    LIG   0.0000
  20 H            1.7348    -0.9345     1.7405 H            1    LIG   0.0000
  21 H            0.9412     1.3973     0.0842 H            1    LIG   0.0000
  22 H            0.0842     0.9412     1.3973 H            1    LIG   0.0000
  23 H            2.4909     2.4909     1.4303 H            1    LIG   0.0000
  24 H            1.4032     2.4070     5.7473 H            1    LIG   0.0000
  25 H            2.7905     3.7914     7.1271 H            1    LIG   0.0000
  26 H            5.5232     5.7611     5.9615 H            1    LIG   0.0000
  27 H            4.5003     5.5261     7.2126 H            1    LIG   0.0000
  28 H            5.3805     4.3781     3.9473 H            1    LIG   0.0000
  29 H            3.9992     2.9953     2.5606 H            1    LIG   0.0000
@<TRIPOS>BOND
   1        1        2 1
   2        2        3 2
   3        3        4 1
   4        4        5 1
   5        5        6 am
   6        6        7 2
   7        6        8 1
   8        8        9 ar
   9        9       10 ar
  10       10       11 ar
  11       11       12 1
  12       12       13 1
  13       11       14 ar
  14       14       15 ar
  15       15        8 ar
  16        1       16 1
  17        1       17 1
  18        1       18 1
  19        2       19 1
  20        3       20 1
  21        4       21 1
  22        4       22 1
  23        5       23 1
  24        9       24 1
  25       10       25 1
  26       12       26 1
  27       12       27 1
  28       14       28 1
  29       15       29 1

@<TRIPOS>MOLECULE

  29   29
SMALL
USER_CHARGES
@<TRIPOS>ATOM
   1 C1          -0.4692    -1.2343     1.8954 C.3          1    LIG   0.0000
   2 C2           0.9265    -1.4221     1.3234 C.2          1    LIG   0.0000
   3 C3           1.6038    -0.3921     0.9107 C.2          1    LIG   0.0000
   4 C4           1.0000     1.0000     1.0000 C.3          1    LIG   0.0000
   5 N5           1.8487     1.8487     1.8487 N.am         1    LIG   0.0000
   6 C6           1.7598     1.7598     3.2129 C.2          1    LIG   0.0000
   7 O7           0.9891     0.9891     3.7150 O.2          1    LIG   0.0000
   8 C8           2.5968     2.5968     4.0499 C.ar         1    LIG   0.0000
   9 C9           2.2340     2.8199     5.3742 C.ar         1    LIG   0.0000
  10 C10          3.0401     3.6240     6.1733 C.ar         1    LIG   0.0000
  11 C11          4.1932     4.1951     5.6457 C.ar         1    LIG   0.0000
  12 C12          5.0677     5.0723     6.5255 C.3          1    LIG   0.0000
  13 F13          5.9820     4.3204     7.1319 F            1    LIG   0.0000
  14 C14          4.5493     3.9658     4.3202 C.ar         1    LIG   0.0000
  15 C15          3.7492     3.1633     3.5142 C.ar         1    LIG   0.0000
  16 H           -0.8426    -2.1230     2.1617 H            1    LIG   0.0000
  17 H           -0.4235    -0.6382     2.6970 H            1    LIG   0.0000
  18 H           -1.0596    -0.8183     1.2038 H            1    LIG   0.0000
  19 H            1.3238    -2.3379     1.2647 H            1    LIG   0.0000
  20 H            2.5221    -0.5156     0.5344 H            1    LIG   0.0000
  21 H            0.9412     1.3973     0.0842 H            1    LIG   0.0000
  22 H            0.0842     0.9412     1.3973 H            1    LIG   0.0000
  23 H            2.4909     2.4909     1.4303 H            1    LIG   0.0000
  24 H            1.4032     2.4070     5.7473 H            1    LIG   0.0000
  25 H            2.7905     3.7914     7.1271 H            1    LIG   0.0000
  26 H            5.5232     5.7611     5.9615 H            1    LIG   0.0000
  27 H            4.5003     5.5261     7.2126 H            1    LIG   0.0000
  28 H            5.3805     4.3781     3.9473 H            1    LIG   0.0000
  29 H            3.9992     2.9953     2.5606 H            1    LIG   0.0000
@<TRIPOS>BOND
   1        1        2 1
   2        2        3 2
   3        3        4 1
   4        4        5 1
   5        5        6 am
   6        6        7 2
   7        6        8 1
   8        8        9 ar
   9        9       10 ar
  10       10       11 ar
  11       11       12 1
  12       12       13 1
  13       11       14 ar
  14       14       15 ar
  15       15        8 ar
  16        1       16 1
  17        1       17 1
  18        1       18 1
  19        2       19 1
  20        3       20 1
  21        4       21 1
  22        4       22 1
  23        5       23 1
  24        9       24 1
  25       10       25 1
  26       12       26 1
  27       12       27 1
  28       14       28 1
  29       15       29 1

@<TRIPOS>MOLECULE

  29   29
SMALL
USER_CHARGES
@<TRIPOS>ATOM
   1 C1          -0.4692    -1.2343     1.8954 C.3          1    LIG   0.0000
   2 C2           0.9265    -1.4221     1.3234 C.2          1    LIG   0.0000
   3 C3           1.6038    -0.3921     0.9107 C.2          1    LIG   0.0000
   4 C4           1.0000     1.0000     1.0000 C.3          1    LIG   0.0000
   5 N5           1.8487     1.8487     1.8487 N.am         1    LIG   0.0000
   6 C6           2.2442     1.4052     3.0831 C.2          1    LIG   0.0000
   7 O7           1.8978     0.3240     3.4716 O.2          1    LIG   0.0000
   8 C8           3.0812     2.2422     3.9201 C.ar         1    LIG   0.0000
   9 C9           3.8143     1.6631     4.9507 C.ar         1    LIG   0.0000
  10 C10          4.6157     2.4702     5.7514 C.ar         1    LIG   0.0000
  11 C11          4.6765     3.8398     5.5176 C.ar         1    LIG   0.0000
  12 C12          5.5542     4.7142     6.3971 C.3          1    LIG   0.0000
  13 F13          6.7724     4.7927     5.8692 F            1    LIG   0.0000
  14 C14          3.9407     4.4108     4.4838 C.ar         1    LIG   0.0000
  15 C15          3.1368     3.6113     3.6785 C.ar         1    LIG   0.0000
  16 H           -0.8426    -2.1230     2.1617 H            1    LIG   0.0000
  17 H           -0.4235    -0.6382     2.6970 H            1    LIG   0.0000
  18 H           -1.0596    -0.8183     1.2038 H            1    LIG   0.0000
  19 H            1.3238    -2.3379     1.2647 H            1    LIG   0.0000
  20 H            2.5221    -0.5156     0.5344 H            1    LIG   0.0000
  21 H            0.9412     1.3973     0.0842 H            1    LIG   0.0000
  22 H            0.0842     0.9412     1.3973 H            1    LIG   0.0000
  23 H            2.1374     2.7498     1.5250 H            1    LIG   0.0000
  24 H            3.7657     0.6777     5.1141 H            1    LIG   0.0000
  25 H            5.1481     2.0658     6.4950 H            1    LIG   0.0000
  26 H            5.1576     5.6301     6.4581 H            1    LIG   0.0000
  27 H            5.6125     4.3146     7.3120 H            1    LIG   0.0000
  28 H            3.9899     5.3961     4.3199 H            1    LIG   0.0000
  29 H            2.6050     4.0157     2.9345 H            1    LIG   0.0000
@<TRIPOS>BOND
   1        1        2 1
   2        2        3 2
   3        3        4 1
   4        4        5 1
   5        5        6 am
   6        6        7 2
   7        6        8 1
   8        8        9 ar
   9        9       10 ar
  10       10       11 ar
  11       11       12 1
  12       12       13 1
  13       11       14 ar
  14       14       15 ar
  15       15        8 ar
  16        1       16 1
  17        1       17 1
  18        1       18 1
  19        2       19 1
  20        3       20 1
  21        4       21 1
  22        4       22 1
  23        5       23 1
  24        9       24 1
  25       10       25 1
  26       12       26 1
  27       12       27 1
  28       14       28 1
  29       15       29 1

@<TRIPOS>MOLECULE

  29   29
SMALL
USER_CHARGES
@<TRIPOS>ATOM
   1 C1           1.7509    -0.0531    -1.5059 C.3          1    LIG   0.0000
   2 C2           1.9500    -0.8775    -0.2446 C.2          1    LIG   0.0000
   3 C3           1.6038    -0.3921     0.9107 C.2          1    LIG   0.0000
   4 C4           1.0000     1.0000     1.0000 C.3          1    LIG   0.0000
   5 N5           1.8487     1.8487     1.8487 N.am         1    LIG   0.0000
   6 C6           1.5021     3.1545     2.0760 C.2          1    LIG   0.0000
   7 O7           0.5057     3.6054     1.5822 O.2          1    LIG   0.0000
   8 C8           2.3391     3.9915     2.9130 C.ar         1    LIG   0.0000
   9 C9           2.2394     5.3754     2.8133 C.ar         1    LIG   0.0000
  10 C10          3.0448     6.1744     3.6182 C.ar         1    LIG   0.0000
  11 C11          3.9374     5.5877     4.5088 C.ar         1    LIG   0.0000
  12 C12          4.8135     6.4679     5.3841 C.3          1    LIG   0.0000
  13 F13          5.9551     6.7253     4.7520 F            1    LIG   0.0000
  14 C14          4.0299     4.2025     4.6029 C.ar         1    LIG   0.0000
  15 C15          3.2285     3.3962     3.8020 C.ar         1    LIG   0.0000
  16 H            2.0684    -0.5740    -2.2982 H            1    LIG   0.0000
  17 H            0.7800     0.1606    -1.6147 H            1    LIG   0.0000
  18 H            2.2732     0.7967    -1.4346 H            1    LIG   0.0000
  19 H            2.3472    -1.7933    -0.3033 H            1    LIG   0.0000
  20 H            1.7348    -0.9345     1.7405 H            1    LIG   0.0000
  21 H            0.9412     1.3973     0.0842 H            1    LIG   0.0000
  22 H            0.0842     0.9412     1.3973 H            1    LIG   0.0000
  23 H            2.6791     1.4729     2.2602 H            1    LIG   0.0000
  24 H            1.5961     5.7911     2.1703 H            1    LIG   0.0000
  25 H            2.9820     7.1705     3.5564 H            1    LIG   0.0000
  26 H            4.3377     7.3263     5.5757 H            1    LIG   0.0000
  27 H            5.0077     5.9952     6.2437 H            1    LIG   0.0000
  28 H            4.6726     3.7869     5.2465 H            1    LIG   0.0000
  29 H            3.2908     2.4001     3.8642 H            1    LIG   0.0000
@<TRIPOS>BOND
   1        1        2 1
   2        2        3 2
   3        3        4 1
   4        4        5 1
   5        5        6 am
   6        6        7 2
   7        6        8 1
   8        8        9 ar
   9        9       10 ar
  10       10       11 ar
  11       11       12 1
  12       12       13 1
  13       11       14 ar
  14       14       15 ar
  15       15        8 ar
  16        1       16 1
  17        1       17 1
  18        1       18 1
  19        2       19 1
  20        3       20 1
  21        4       21 1
  22        4       22 1
  23        5       23 1
  24        9       24 1
  25       10       25 1
  26       12       26 1
  27       12       27 1
  28       14       28 1
  29       15       29 1

@<TRIPOS>MOLECULE

  29   29
SMALL
USER_CHARGES
@<TRIPOS>ATOM
   1 C1          -0.4692    -1.2343     1.8954 C.3          1    LIG   0.0000
   2 C2           0.9265    -1.4221     1.3234 C.2          1    LIG   0.0000
   3 C3           1.6038    -0.3921     0.9107 C.2          1    LIG   0.0000
   4 C4           1.0000     1.0000     1.0000 C.3          1    LIG   0.0000
   5 N5           1.8487     1.8487     1.8487 N.am         1    LIG   0.0000
   6 C6           1.5021     3.1545     2.0760 C.2          1    LIG   0.0000
   7 O7           0.5057     3.6054     1.5822 O.2          1    LIG   0.0000
   8 C8           2.3391     3.9915     2.9130 C.ar         1    LIG   0.0000
   9 C9           2.2394     5.3754     2.8133 C.ar         1    LIG   0.0000
  10 C10          3.0448     6.1744     3.6182 C.ar         1    LIG   0.0000
  11 C11          3.9374     5.5877     4.5088 C.ar         1    LIG   0.0000
  12 C12          4.8135     6.4679     5.3841 C.3          1    LIG   0.0000
  13 F13          5.9551     6.7253     4.7520 F            1    LIG   0.0000
  14 C14          4.0299     4.2025     4.6029 C.ar         1    LIG   0.0000
  15 C15          3.2285     3.3962     3.8020 C.ar         1    LIG   0.0000
  16 H           -0.8426    -2.1230     2.1617 H            1    LIG   0.0000
  17 H           -0.4235    -0.6382     2.6970 H            1    LIG   0.0000
  18 H           -1.0596    -0.8183     1.2038 H            1    LIG   0.0000
  19 H            1.3238    -2.3379     1.2647 H            1    LIG   0.0000
  20 H            2.5221    -0.5156     0.5344 H            1    LIG   0.0000
  21 H            0.9412     1.3973     0.0842 H            1    LIG   0.0000
  22 H            0.0842     0.9412     1.3973 H            1    LIG   0.0000
  23 H            2.6791     1.4729     2.2602 H            1    LIG   0.0000
  24 H            1.5961     5.7911     2.1703 H            1    LIG   0.0000
  25 H            2.9820     7.1705     3.5564 H            1    LIG   0.0000
  26 H            4.3377     7.3263     5.5757 H            1    LIG   0.0000
  27 H            5.0077     5.9952     6.2437 H            1    LIG   0.0000
  28 H            4.6726     3.7869     5.2465 H            1    LIG   0.0000
  29 H            3.2908     2.4001     3.8642 H            1    LIG   0.0000
@<TRIPOS>BOND
   1        1        2 1
   2        2        3 2
   3        3        4 1
   4        4        5 1
   5        5        6 am
   6        6        7 2
   7        6        8 1
   8        8        9 ar
   9        9       10 ar
  10       10       11 ar
  11       11       12 1
  12       12       13 1
  13       11       14 ar
  14       14       15 ar
  15       15        8 ar
  16        1       16 1
  17        1       17 1
  18        1       18 1
  19        2       19 1
  20        3       20 1
  21        4       21 1
  22        4       22 1
  23        5       23 1
  24        9       24 1
  25       10       25 1
  26       12       26 1
  27       12       27 1
  28       14       28 1
  29       15       29 1

@<TRIPOS>MOLECULE

  29   29
SMALL
USER_CHARGES
@<TRIPOS>ATOM
   1 C1           1.7509    -0.0531    -1.5059 C.3          1    LIG   0.0000
   2 C2           1.9500    -0.8775    -0.2446 C.2          1    LIG   0.0000
   3 C3           1.6038    -0.3921     0.9107 C.2          1    LIG   0.0000
   4 C4           1.0000     1.0000     1.0000 C.3          1    LIG   0.0000
   5 N5           1.8487     1.8487     1.8487 N.am         1    LIG   0.0000
   6 C6           1.5021     3.1545     2.0760 C.2          1    LIG   0.0000
   7 O7           0.5057     3.6054     1.5822 O.2          1    LIG   0.0000
   8 C8           2.3391     3.9915     2.9130 C.ar         1    LIG   0.0000
   9 C9           2.2394     5.3754     2.8133 C.ar         1    LIG   0.0000
  10 C10          3.0448     6.1744     3.6182 C.ar         1    LIG   0.0000
  11 C11          3.9374     5.5877     4.5088 C.ar         1    LIG   0.0000
  12 C12          4.8135     6.4679     5.3841 C.3          1    LIG   0.0000
  13 F13          4.1833     6.7241     6.5269 F            1    LIG   0.0000
  14 C14          4.0299     4.2025     4.6029 C.ar         1    LIG   0.0000
  15 C15          3.2285     3.3962     3.8020 C.ar         1    LIG   0.0000
  16 H            2.0684    -0.5740    -2.2982 H            1    LIG   0.0000
  17 H            0.7800     0.1606    -1.6147 H            1    LIG   0.0000
  18 H            2.2732     0.7967    -1.4346 H            1    LIG   0.0000
  19 H            2.3472    -1.7933    -0.3033 H            1    LIG   0.0000
  20 H            1.7348    -0.9345     1.7405 H            1    LIG   0.0000
  21 H            0.9412     1.3973     0.0842 H            1    LIG   0.0000
  22 H            0.0842     0.9412     1.3973 H            1    LIG   0.0000
  23 H            2.6791     1.4729     2.2602 H            1    LIG   0.0000
  24 H            1.5961     5.7911     2.1703 H            1    LIG   0.0000
  25 H            2.9820     7.1705     3.5564 H            1    LIG   0.0000
  26 H            5.6738     5.9957     5.5764 H            1    LIG   0.0000
  27 H            5.0038     7.3267     4.9085 H            1    LIG   0.0000
  28 H            4.6726     3.7869     5.2465 H            1    LIG   0.0000
  29 H            3.2908     2.4001     3.8642 H            1    LIG   0.0000
@<TRIPOS>BOND
   1        1        2 1
   2        2        3 2
   3        3        4 1
   4        4        5 1
   5        5        6 am
   6        6        7 2
   7        6        8 1
   8        8        9 ar
   9        9       10 ar
  10       10       11 ar
  11       11       12 1
  12       12       13 1
  13       11       14 ar
  14       14       15 ar
  15       15        8 ar
  16        1       16 1
  17        1       17 1
  18        1       18 1
  19        2       19 1
  20        3       20 1
  21        4       21 1
  22        4       22 1
  23        5       23 1
  24        9       24 1
  25       10       25 1
  26       12       26 1
  27       12       27 1
  28       14       28 1
  29       15       29 1

@<TRIPOS>MOLECULE

  29   29
SMALL
USER_CHARGES
@<TRIPOS>ATOM
   1 C1          -0.4692    -1.2343     1.8954 C.3          1    LIG   0.0000
   2 C2           0.9265    -1.4221     1.3234 C.2          1    LIG   0.0000
   3 C3           1.6038    -0.3921     0.9107 C.2          1    LIG   0.0000
   4 C4           1.0000     1.0000     1.0000 C.3          1    LIG   0.0000
   5 N5           1.8487     1.8487     1.8487 N.am         1    LIG   0.0000
   6 C6           1.5021     3.1545     2.0760 C.2          1    LIG   0.0000
   7 O7           0.5057     3.6054     1.5822 O.2          1    LIG   0.0000
   8 C8           2.3391     3.9915     2.9130 C.ar         1    LIG   0.0000
   9 C9           2.2394     5.3754     2.8133 C.ar         1    LIG   0.0000
  10 C10          3.0448     6.1744     3.6182 C.ar         1    LIG   0.0000
  11 C11          3.9374     5.5877     4.5088 C.ar         1    LIG   0.0000
  12 C12          4.8135     6.4679     5.3841 C.3          1    LIG   0.0000
  13 F13          4.1833     6.7241     6.5269 F            1    LIG   0.0000
  14 C14          4.0299     4.2025     4.6029 C.ar         1    LIG   0.0000
  15 C15          3.2285     3.3962     3.8020 C.ar         1    LIG   0.0000
  16 H           -0.8426    -2.1230     2.1617 H            1    LIG   0.0000
  17 H           -0.4235    -0.6382     2.6970 H            1    LIG   0.0000
  18 H           -1.0596    -0.8183     1.2038 H            1    LIG   0.0000
  19 H            1.3238    -2.3379     1.2647 H            1    LIG   0.0000
  20 H            2.5221    -0.5156     0.5344 H            1    LIG   0.0000
  21 H            0.9412     1.3973     0.0842 H            1    LIG   0.0000
  22 H            0.0842     0.9412     1.3973 H            1    LIG   0.0000
  23 H            2.6791     1.4729     2.2602 H            1    LIG   0.0000
  24 H            1.5961     5.7911     2.1703 H            1    LIG   0.0000
  25 H            2.9820     7.1705     3.5564 H            1    LIG   0.0000
  26 H            5.6738     5.9957     5.5764 H            1    LIG   0.0000
  27 H            5.0038     7.3267     4.9085 H            1    LIG   0.0000
  28 H            4.6726     3.7869     5.2465 H            1    LIG   0.0000
  29 H            3.2908     2.4001     3.8642 H            1    LIG   0.0000
@<TRIPOS>BOND
   1        1        2 1
   2        2        3 2
   3        3        4 1
   4        4        5 1
   5        5        6 am
   6        6        7 2
   7        6        8 1
   8        8        9 ar
   9        9       10 ar
  10       10       11 ar
  11       11       12 1
  12       12       13 1
  13       11       14 ar
  14       14       15 ar
  15       15        8 ar
  16        1       16 1
  17        1       17 1
  18        1       18 1
  19        2       19 1
  20        3       20 1
  21        4       21 1
  22        4       22 1
  23        5       23 1
  24        9       24 1
  25       10       25 1
  26       12       26 1
  27       12       27 1
  28       14       28 1
  29       15       29 1

