@<TRIPOS>MOLECULE
*****
 29 29 0 0 0
SMALL
USER_CHARGES

@<TRIPOS>ATOM
      1 C1         -0.4692   -1.2343    1.8954 C.3     1  LIG1        0.0000
      2 C2          0.9265   -1.4221    1.3234 C.2     1  LIG1        0.0000
      3 C3          1.6038   -0.3921    0.9107 C.2     1  LIG1        0.0000
      4 C4          1.0000    1.0000    1.0000 C.3     1  LIG1        0.0000
      5 N5          1.8487    1.8487    1.8487 N.am    1  LIG1        0.0000
      6 C6          2.2442    1.4052    3.0831 C.2     1  LIG1        0.0000
      7 O7          1.8978    0.3240    3.4716 O.2     1  LIG1        0.0000
      8 C8          3.0812    2.2422    3.9201 C.3     1  LIG1        0.0000
      9 C9          3.8143    1.6631    4.9507 C.3     1  LIG1        0.0000
     10 C10         4.6157    2.4702    5.7514 C.3     1  LIG1        0.0000
     11 C11         4.6765    3.8398    5.5176 C.3     1  LIG1        0.0000
     12 C12         5.5542    4.7142    6.3971 C.3     1  LIG1        0.0000
     13 F13         6.7724    4.7927    5.8692 F       1  LIG1        0.0000
     14 C14         3.9407    4.4108    4.4838 C.3     1  LIG1        0.0000
     15 C15         3.1368    3.6113    3.6785 C.3     1  LIG1        0.0000
     16 H          -0.8426   -2.1230    2.1617 H       1  LIG1        0.0000
     17 H          -0.4235   -0.6382    2.6970 H       1  LIG1        0.0000
     18 H          -1.0596   -0.8183    1.2038 H       1  LIG1        0.0000
     19 H           1.3238   -2.3379    1.2647 H       1  LIG1        0.0000
     20 H           2.5221   -0.5156    0.5344 H       1  LIG1        0.0000
     21 H           0.9412    1.3973    0.0842 H       1  LIG1        0.0000
     22 H           0.0842    0.9412    1.3973 H       1  LIG1        0.0000
     23 H           2.1374    2.7498    1.5250 H       1  LIG1        0.0000
     24 H           3.7657    0.6777    5.1141 H       1  LIG1        0.0000
     25 H           5.1481    2.0658    6.4950 H       1  LIG1        0.0000
     26 H           5.1576    5.6301    6.4581 H       1  LIG1        0.0000
     27 H           5.6125    4.3146    7.3120 H       1  LIG1        0.0000
     28 H           3.9899    5.3961    4.3199 H       1  LIG1        0.0000
     29 H           2.6050    4.0157    2.9345 H       1  LIG1        0.0000
@<TRIPOS>BOND
     1     1     2    1
     2     2     3    2
     3     3     4    1
     4     4     5    1
     5     5     6   am
     6     6     7    2
     7     6     8    1
     8     8     9   ar
     9     9    10   ar
    10    10    11   ar
    11    11    12    1
    12    12    13    1
    13    11    14   ar
    14    14    15   ar
    15    15     8   ar
    16     1    16    1
    17     1    17    1
    18     1    18    1
    19     2    19    1
    20     3    20    1
    21     4    21    1
    22     4    22    1
    23     5    23    1
    24     9    24    1
    25    10    25    1
    26    12    26    1
    27    12    27    1
    28    14    28    1
    29    15    29    1
