@<TRIPOS>MOLECULE
*****
 29 29 0 0 0
SMALL
USER_CHARGES

@<TRIPOS>ATOM
      1 C1          1.7509   -0.0531   -1.5059 C.3     1  LIG1        0.0000
      2 C2          1.9500   -0.8775   -0.2446 C.2     1  LIG1        0.0000
      3 C3          1.6038   -0.3921    0.9107 C.2     1  LIG1        0.0000
      4 C4          1.0000    1.0000    1.0000 C.3     1  LIG1        0.0000
      5 N5          1.8487    1.8487    1.8487 N.am    1  LIG1        0.0000
      6 C6          1.5021    3.1545    2.0760 C.2     1  LIG1        0.0000
      7 O7          0.5057    3.6054    1.5822 O.2     1  LIG1        0.0000
      8 C8          2.3391    3.9915    2.9130 C.3     1  LIG1        0.0000
      9 C9          2.2394    5.3754    2.8133 C.3     1  LIG1        0.0000
     10 C10         3.0448    6.1744    3.6182 C.3     1  LIG1        0.0000
     11 C11         3.9374    5.5877    4.5088 C.3     1  LIG1        0.0000
     12 C12         4.8135    6.4679    5.3841 C.3     1  LIG1        0.0000
     13 F13         5.9551    6.7253    4.7520 F       1  LIG1        0.0000
     14 C14         4.0299    4.2025    4.6029 C.3     1  LIG1        0.0000
     15 C15         3.2285    3.3962    3.8020 C.3     1  LIG1        0.0000
     16 H           2.0684   -0.5740   -2.2982 H       1  LIG1        0.0000
     17 H           0.7800    0.1606   -1.6147 H       1  LIG1        0.0000
     18 H           2.2732    0.7967   -1.4346 H       1  LIG1        0.0000
     19 H           2.3472   -1.7933   -0.3033 H       1  LIG1        0.0000
     20 H           1.7348   -0.9345    1.7405 H       1  LIG1        0.0000
     21 H           0.9412    1.3973    0.0842 H       1  LIG1        0.0000
     22 H           0.0842    0.9412    1.3973 H       1  LIG1        0.0000
     23 H           2.6791    1.4729    2.2602 H       1  LIG1        0.0000
     24 H           1.5961    5.7911    2.1703 H       1  LIG1        0.0000
     25 H           2.9820    7.1705    3.5564 H       1  LIG1        0.0000
     26 H           4.3377    7.3263    5.5757 H       1  LIG1        0.0000
     27 H           5.0077    5.9952    6.2437 H       1  LIG1        0.0000
     28 H           4.6726    3.7869    5.2465 H       1  LIG1        0.0000
     29 H           3.2908    2.4001    3.8642 H       1  LIG1        0.0000
@<TRIPOS>BOND
     1     1     2    1
     2     2     3    2
     3     3     4    1
     4     4     5    1
     5     5     6   am
     6     6     7    2
     7     6     8    1
     8     8     9   ar
     9     9    10   ar
    10    10    11   ar
    11    11    12    1
    12    12    13    1
    13    11    14   ar
    14    14    15   ar
    15    15     8   ar
    16     1    16    1
    17     1    17    1
    18     1    18    1
    19     2    19    1
    20     3    20    1
    21     4    21    1
    22     4    22    1
    23     5    23    1
    24     9    24    1
    25    10    25    1
    26    12    26    1
    27    12    27    1
    28    14    28    1
    29    15    29    1
