@<TRIPOS>MOLECULE
*****
 29 29 0 0 0
SMALL
USER_CHARGES

@<TRIPOS>ATOM
      1 C1         -0.4692   -1.2343    1.8954 C.3     1  LIG1        0.0000
      2 C2          0.9265   -1.4221    1.3234 C.2     1  LIG1        0.0000
      3 C3          1.6038   -0.3921    0.9107 C.2     1  LIG1        0.0000
      4 C4          1.0000    1.0000    1.0000 C.3     1  LIG1        0.0000
      5 N5          1.8487    1.8487    1.8487 N.am    1  LIG1        0.0000
      6 C6          2.9863    2.4124    1.3339 C.2     1  LIG1        0.0000
      7 O7          3.2899    2.2133    0.1901 O.2     1  LIG1        0.0000
      8 C8          3.8233    3.2494    2.1709 C.3     1  LIG1        0.0000
      9 C9          5.1475    3.4725    1.8081 C.3     1  LIG1        0.0000
     10 C10         5.9468    4.2760    2.6145 C.3     1  LIG1        0.0000
     11 C11         5.4200    4.8449    3.7690 C.3     1  LIG1        0.0000
     12 C12         6.3002    5.7211    4.6442 C.3     1  LIG1        0.0000
     13 F13         6.2063    6.9855    4.2425 F       1  LIG1        0.0000
     14 C14         4.0939    4.6175    4.1239 C.3     1  LIG1        0.0000
     15 C15         3.2877    3.8154    3.3236 C.3     1  LIG1        0.0000
     16 H          -0.8426   -2.1230    2.1617 H       1  LIG1        0.0000
     17 H          -0.4235   -0.6382    2.6970 H       1  LIG1        0.0000
     18 H          -1.0596   -0.8183    1.2038 H       1  LIG1        0.0000
     19 H           1.3238   -2.3379    1.2647 H       1  LIG1        0.0000
     20 H           2.5221   -0.5156    0.5344 H       1  LIG1        0.0000
     21 H           0.9412    1.3973    0.0842 H       1  LIG1        0.0000
     22 H           0.0842    0.9412    1.3973 H       1  LIG1        0.0000
     23 H           1.5957    2.0146    2.8018 H       1  LIG1        0.0000
     24 H           5.5206    3.0599    0.9770 H       1  LIG1        0.0000
     25 H           6.9002    4.4446    2.3641 H       1  LIG1        0.0000
     26 H           6.0000    5.6504    5.5955 H       1  LIG1        0.0000
     27 H           7.2503    5.4177    4.5711 H       1  LIG1        0.0000
     28 H           3.7207    5.0307    4.9545 H       1  LIG1        0.0000
     29 H           2.3342    3.6474    3.5735 H       1  LIG1        0.0000
@<TRIPOS>BOND
     1     1     2    1
     2     2     3    2
     3     3     4    1
     4     4     5    1
     5     5     6   am
     6     6     7    2
     7     6     8    1
     8     8     9   ar
     9     9    10   ar
    10    10    11   ar
    11    11    12    1
    12    12    13    1
    13    11    14   ar
    14    14    15   ar
    15    15     8   ar
    16     1    16    1
    17     1    17    1
    18     1    18    1
    19     2    19    1
    20     3    20    1
    21     4    21    1
    22     4    22    1
    23     5    23    1
    24     9    24    1
    25    10    25    1
    26    12    26    1
    27    12    27    1
    28    14    28    1
    29    15    29    1
