@<TRIPOS>MOLECULE

  27   28
SMALL
USER_CHARGES
@<TRIPOS>ATOM
   1 C1          -0.5084    -0.4781    -0.7663 C.3          1    LIG   0.0000
   2 C2           0.4752     0.4752    -1.4266 C.3          1    LIG   0.0000
   3 C3           0.1089     1.9069    -1.1511 C.3          1    LIG   0.0000
   4 C4           1.2926     1.2926    -0.4630 C.3          1    LIG   0.0000
   5 C5           1.0000     1.0000     1.0000 C.3          1    LIG   0.0000
   6 S6           2.0450     2.0450     2.0450 S.3          1    LIG   0.0000
   7 C7           1.5711     1.5711     3.6501 C.ar         1    LIG   0.0000
   8 C8           0.5955     0.5955     3.8245 C.ar         1    LIG   0.0000
   9 C9           0.2152     0.2145     5.1067 C.ar         1    LIG   0.0000
  10 C10          0.8100     0.8095     6.2141 C.ar         1    LIG   0.0000
  11 C11          1.7858     1.7852     6.0391 C.ar         1    LIG   0.0000
  12 C12          2.1662     2.1659     4.7573 C.ar         1    LIG   0.0000
  13 O13          3.1123     3.1122     4.5812 O.3          1    LIG   0.0000
  14 H            0.8659     0.2343    -2.3150 H            1    LIG   0.0000
  15 H            2.2131     1.5804    -0.7275 H            1    LIG   0.0000
  16 H           -1.0093    -0.9809    -1.4708 H            1    LIG   0.0000
  17 H           -0.0098    -1.1232    -0.1873 H            1    LIG   0.0000
  18 H           -1.1529     0.0428    -0.2067 H            1    LIG   0.0000
  19 H            0.2464     2.6024    -1.8563 H            1    LIG   0.0000
  20 H           -0.7172     2.1198    -0.6294 H            1    LIG   0.0000
  21 H            0.0377     1.1925     1.1925 H            1    LIG   0.0000
  22 H            1.1925     0.0377     1.1925 H            1    LIG   0.0000
  23 H            0.1676     0.1681     3.0282 H            1    LIG   0.0000
  24 H           -0.4859    -0.4873     5.2325 H            1    LIG   0.0000
  25 H            0.5362     0.5359     7.1361 H            1    LIG   0.0000
  26 H            2.2137     2.2128     6.8353 H            1    LIG   0.0000
  27 H            3.5429     3.5425     5.3746 H            1    LIG   0.0000
@<TRIPOS>BOND
   1        1        2 1
   2        2        3 1
   3        3        4 1
   4        4        2 1
   5        4        5 1
   6        5        6 1
   7        6        7 1
   8        7        8 ar
   9        8        9 ar
  10        9       10 ar
  11       10       11 ar
  12       11       12 ar
  13       12        7 ar
  14       12       13 1
  15        2       14 1
  16        4       15 1
  17        1       16 1
  18        1       17 1
  19        1       18 1
  20        3       19 1
  21        3       20 1
  22        5       21 1
  23        5       22 1
  24        8       23 1
  25        9       24 1
  26       10       25 1
  27       11       26 1
  28       13       27 1

@<TRIPOS>MOLECULE

  27   28
SMALL
USER_CHARGES
@<TRIPOS>ATOM
   1 C1          -0.5084    -0.4781    -0.7663 C.3          1    LIG   0.0000
   2 C2           0.4752     0.4752    -1.4266 C.3          1    LIG   0.0000
   3 C3           0.1089     1.9069    -1.1511 C.3          1    LIG   0.0000
   4 C4           1.2926     1.2926    -0.4630 C.3          1    LIG   0.0000
   5 C5           1.0000     1.0000     1.0000 C.3          1    LIG   0.0000
   6 S6           2.0450     2.0450     2.0450 S.3          1    LIG   0.0000
   7 C7           1.5711     1.5711     3.6501 C.ar         1    LIG   0.0000
   8 C8           0.5297     2.2350     4.2892 C.ar         1    LIG   0.0000
   9 C9           0.1486     1.8577     5.5722 C.ar         1    LIG   0.0000
  10 C10          0.8092     0.8171     6.2161 C.ar         1    LIG   0.0000
  11 C11          1.8507     0.1532     5.5764 C.ar         1    LIG   0.0000
  12 C12          2.2316     0.5302     4.2936 C.ar         1    LIG   0.0000
  13 O13          3.2416    -0.1102     3.6679 O.3          1    LIG   0.0000
  14 H            0.8659     0.2343    -2.3150 H            1    LIG   0.0000
  15 H            2.2131     1.5804    -0.7275 H            1    LIG   0.0000
  16 H           -1.0093    -0.9809    -1.4708 H            1    LIG   0.0000
  17 H           -0.0098    -1.1232    -0.1873 H            1    LIG   0.0000
  18 H           -1.1529     0.0428    -0.2067 H            1    LIG   0.0000
  19 H            0.2464     2.6024    -1.8563 H            1    LIG   0.0000
  20 H           -0.7172     2.1198    -0.6294 H            1    LIG   0.0000
  21 H            0.0377     1.1925     1.1925 H            1    LIG   0.0000
  22 H            1.1925     0.0377     1.1925 H            1    LIG   0.0000
  23 H            0.0550     2.9836     3.8263 H            1    LIG   0.0000
  24 H           -0.6006     2.3347     6.0319 H            1    LIG   0.0000
  25 H            0.5355     0.5460     7.1389 H            1    LIG   0.0000
  26 H            2.3256    -0.5953     6.0392 H            1    LIG   0.0000
  27 H            3.7193    -0.8592     4.1270 H            1    LIG   0.0000
@<TRIPOS>BOND
   1        1        2 1
   2        2        3 1
   3        3        4 1
   4        4        2 1
   5        4        5 1
   6        5        6 1
   7        6        7 1
   8        7        8 ar
   9        8        9 ar
  10        9       10 ar
  11       10       11 ar
  12       11       12 ar
  13       12        7 ar
  14       12       13 1
  15        2       14 1
  16        4       15 1
  17        1       16 1
  18        1       17 1
  19        1       18 1
  20        3       19 1
  21        3       20 1
  22        5       21 1
  23        5       22 1
  24        8       23 1
  25        9       24 1
  26       10       25 1
  27       11       26 1
  28       13       27 1

@<TRIPOS>MOLECULE

  27   28
SMALL
USER_CHARGES
@<TRIPOS>ATOM
   1 C1          -0.5084    -0.4781    -0.7663 C.3          1    LIG   0.0000
   2 C2           0.4752     0.4752    -1.4266 C.3          1    LIG   0.0000
   3 C3           0.1089     1.9069    -1.1511 C.3          1    LIG   0.0000
   4 C4           1.2926     1.2926    -0.4630 C.3          1    LIG   0.0000
   5 C5           1.0000     1.0000     1.0000 C.3          1    LIG   0.0000
   6 S6           2.0450     2.0450     2.0450 S.3          1    LIG   0.0000
   7 C7           1.5711     1.5711     3.6501 C.ar         1    LIG   0.0000
   8 C8           2.2350     0.5297     4.2892 C.ar         1    LIG   0.0000
   9 C9           1.8583     0.1492     5.5726 C.ar         1    LIG   0.0000
  10 C10          0.8175     0.8097     6.2163 C.ar         1    LIG   0.0000
  11 C11          0.1537     1.8513     5.5767 C.ar         1    LIG   0.0000
  12 C12          0.5305     2.2318     4.2938 C.ar         1    LIG   0.0000
  13 O13         -0.1101     3.2418     3.6680 O.3          1    LIG   0.0000
  14 H            0.8659     0.2343    -2.3150 H            1    LIG   0.0000
  15 H            2.2131     1.5804    -0.7275 H            1    LIG   0.0000
  16 H           -1.0093    -0.9809    -1.4708 H            1    LIG   0.0000
  17 H           -0.0098    -1.1232    -0.1873 H            1    LIG   0.0000
  18 H           -1.1529     0.0428    -0.2067 H            1    LIG   0.0000
  19 H            0.2464     2.6024    -1.8563 H            1    LIG   0.0000
  20 H           -0.7172     2.1198    -0.6294 H            1    LIG   0.0000
  21 H            0.0377     1.1925     1.1925 H            1    LIG   0.0000
  22 H            1.1925     0.0377     1.1925 H            1    LIG   0.0000
  23 H            2.9831     0.0546     3.8260 H            1    LIG   0.0000
  24 H            2.3359    -0.5993     6.0326 H            1    LIG   0.0000
  25 H            0.5463     0.5357     7.1390 H            1    LIG   0.0000
  26 H           -0.5945     2.3264     6.0397 H            1    LIG   0.0000
  27 H           -0.8589     3.7196     4.1272 H            1    LIG   0.0000
@<TRIPOS>BOND
   1        1        2 1
   2        2        3 1
   3        3        4 1
   4        4        2 1
   5        4        5 1
   6        5        6 1
   7        6        7 1
   8        7        8 ar
   9        8        9 ar
  10        9       10 ar
  11       10       11 ar
  12       11       12 ar
  13       12        7 ar
  14       12       13 1
  15        2       14 1
  16        4       15 1
  17        1       16 1
  18        1       17 1
  19        1       18 1
  20        3       19 1
  21        3       20 1
  22        5       21 1
  23        5       22 1
  24        8       23 1
  25        9       24 1
  26       10       25 1
  27       11       26 1
  28       13       27 1

@<TRIPOS>MOLECULE

  27   28
SMALL
USER_CHARGES
@<TRIPOS>ATOM
   1 C1          -0.5084    -0.4781    -0.7663 C.3          1    LIG   0.0000
   2 C2           0.4752     0.4752    -1.4266 C.3          1    LIG   0.0000
   3 C3           0.1089     1.9069    -1.1511 C.3          1    LIG   0.0000
   4 C4           1.2926     1.2926    -0.4630 C.3          1    LIG   0.0000
   5 C5           1.0000     1.0000     1.0000 C.3          1    LIG   0.0000
   6 S6           2.0450     2.0450     2.0450 S.3          1    LIG   0.0000
   7 C7           2.9571     0.8781     2.9571 C.ar         1    LIG   0.0000
   8 C8           2.4676     0.4134     4.1729 C.ar         1    LIG   0.0000
   9 C9           3.1946    -0.5199     4.9038 C.ar         1    LIG   0.0000
  10 C10          4.4112    -0.9878     4.4190 C.ar         1    LIG   0.0000
  11 C11          4.9003    -0.5228     3.2028 C.ar         1    LIG   0.0000
  12 C12          4.1734     0.4100     2.4720 C.ar         1    LIG   0.0000
  13 O13          4.6431     0.8650     1.2913 O.3          1    LIG   0.0000
  14 H            0.8659     0.2343    -2.3150 H            1    LIG   0.0000
  15 H            2.2131     1.5804    -0.7275 H            1    LIG   0.0000
  16 H           -1.0093    -0.9809    -1.4708 H            1    LIG   0.0000
  17 H           -0.0098    -1.1232    -0.1873 H            1    LIG   0.0000
  18 H           -1.1529     0.0428    -0.2067 H            1    LIG   0.0000
  19 H            0.2464     2.6024    -1.8563 H            1    LIG   0.0000
  20 H           -0.7172     2.1198    -0.6294 H            1    LIG   0.0000
  21 H            0.0377     1.1925     1.1925 H            1    LIG   0.0000
  22 H            1.1925     0.0377     1.1925 H            1    LIG   0.0000
  23 H            1.5930     0.7503     4.5216 H            1    LIG   0.0000
  24 H            2.8427    -0.8546     5.7779 H            1    LIG   0.0000
  25 H            4.9342    -1.6586     4.9448 H            1    LIG   0.0000
  26 H            5.7750    -0.8596     2.8540 H            1    LIG   0.0000
  27 H            5.5173     0.5311     0.9388 H            1    LIG   0.0000
@<TRIPOS>BOND
   1        1        2 1
   2        2        3 1
   3        3        4 1
   4        4        2 1
   5        4        5 1
   6        5        6 1
   7        6        7 1
   8        7        8 ar
   9        8        9 ar
  10        9       10 ar
  11       10       11 ar
  12       11       12 ar
  13       12        7 ar
  14       12       13 1
  15        2       14 1
  16        4       15 1
  17        1       16 1
  18        1       17 1
  19        1       18 1
  20        3       19 1
  21        3       20 1
  22        5       21 1
  23        5       22 1
  24        8       23 1
  25        9       24 1
  26       10       25 1
  27       11       26 1
  28       13       27 1

@<TRIPOS>MOLECULE

  27   28
SMALL
USER_CHARGES
@<TRIPOS>ATOM
   1 C1          -0.5084    -0.4781    -0.7663 C.3          1    LIG   0.0000
   2 C2           0.4752     0.4752    -1.4266 C.3          1    LIG   0.0000
   3 C3           0.1089     1.9069    -1.1511 C.3          1    LIG   0.0000
   4 C4           1.2926     1.2926    -0.4630 C.3          1    LIG   0.0000
   5 C5           1.0000     1.0000     1.0000 C.3          1    LIG   0.0000
   6 S6           2.0450     2.0450     2.0450 S.3          1    LIG   0.0000
   7 C7           2.9571     0.8781     2.9571 C.ar         1    LIG   0.0000
   8 C8           4.1729     0.4134     2.4676 C.ar         1    LIG   0.0000
   9 C9           4.9042    -0.5192     3.1951 C.ar         1    LIG   0.0000
  10 C10          4.4194    -0.9873     4.4115 C.ar         1    LIG   0.0000
  11 C11          3.2032    -0.5222     4.9007 C.ar         1    LIG   0.0000
  12 C12          2.4722     0.4103     4.1736 C.ar         1    LIG   0.0000
  13 O13          1.2914     0.8651     4.6432 O.3          1    LIG   0.0000
  14 H            0.8659     0.2343    -2.3150 H            1    LIG   0.0000
  15 H            2.2131     1.5804    -0.7275 H            1    LIG   0.0000
  16 H           -1.0093    -0.9809    -1.4708 H            1    LIG   0.0000
  17 H           -0.0098    -1.1232    -0.1873 H            1    LIG   0.0000
  18 H           -1.1529     0.0428    -0.2067 H            1    LIG   0.0000
  19 H            0.2464     2.6024    -1.8563 H            1    LIG   0.0000
  20 H           -0.7172     2.1198    -0.6294 H            1    LIG   0.0000
  21 H            0.0377     1.1925     1.1925 H            1    LIG   0.0000
  22 H            1.1925     0.0377     1.1925 H            1    LIG   0.0000
  23 H            4.5212     0.7498     1.5927 H            1    LIG   0.0000
  24 H            5.7788    -0.8532     2.8436 H            1    LIG   0.0000
  25 H            4.9450    -1.6583     4.9344 H            1    LIG   0.0000
  26 H            2.8547    -0.8586     5.7756 H            1    LIG   0.0000
  27 H            0.9390     0.5314     5.5175 H            1    LIG   0.0000
@<TRIPOS>BOND
   1        1        2 1
   2        2        3 1
   3        3        4 1
   4        4        2 1
   5        4        5 1
   6        5        6 1
   7        6        7 1
   8        7        8 ar
   9        8        9 ar
  10        9       10 ar
  11       10       11 ar
  12       11       12 ar
  13       12        7 ar
  14       12       13 1
  15        2       14 1
  16        4       15 1
  17        1       16 1
  18        1       17 1
  19        1       18 1
  20        3       19 1
  21        3       20 1
  22        5       21 1
  23        5       22 1
  24        8       23 1
  25        9       24 1
  26       10       25 1
  27       11       26 1
  28       13       27 1

@<TRIPOS>MOLECULE

  27   28
SMALL
USER_CHARGES
@<TRIPOS>ATOM
   1 C1          -0.5084    -0.4781    -0.7663 C.3          1    LIG   0.0000
   2 C2           0.4752     0.4752    -1.4266 C.3          1    LIG   0.0000
   3 C3           0.1089     1.9069    -1.1511 C.3          1    LIG   0.0000
   4 C4           1.2926     1.2926    -0.4630 C.3          1    LIG   0.0000
   5 C5           1.0000     1.0000     1.0000 C.3          1    LIG   0.0000
   6 S6           2.0450     2.0450     2.0450 S.3          1    LIG   0.0000
   7 C7           0.8781     2.9571     2.9571 C.ar         1    LIG   0.0000
   8 C8           0.4134     4.1729     2.4676 C.ar         1    LIG   0.0000
   9 C9          -0.5199     4.9038     3.1946 C.ar         1    LIG   0.0000
  10 C10         -0.9878     4.4190     4.4112 C.ar         1    LIG   0.0000
  11 C11         -0.5228     3.2028     4.9003 C.ar         1    LIG   0.0000
  12 C12          0.4100     2.4720     4.1734 C.ar         1    LIG   0.0000
  13 O13          0.8650     1.2913     4.6431 O.3          1    LIG   0.0000
  14 H            0.8659     0.2343    -2.3150 H            1    LIG   0.0000
  15 H            2.2131     1.5804    -0.7275 H            1    LIG   0.0000
  16 H           -1.0093    -0.9809    -1.4708 H            1    LIG   0.0000
  17 H           -0.0098    -1.1232    -0.1873 H            1    LIG   0.0000
  18 H           -1.1529     0.0428    -0.2067 H            1    LIG   0.0000
  19 H            0.2464     2.6024    -1.8563 H            1    LIG   0.0000
  20 H           -0.7172     2.1198    -0.6294 H            1    LIG   0.0000
  21 H            0.0377     1.1925     1.1925 H            1    LIG   0.0000
  22 H            1.1925     0.0377     1.1925 H            1    LIG   0.0000
  23 H            0.7503     4.5216     1.5930 H            1    LIG   0.0000
  24 H           -0.8546     5.7779     2.8427 H            1    LIG   0.0000
  25 H           -1.6586     4.9448     4.9342 H            1    LIG   0.0000
  26 H           -0.8596     2.8540     5.7750 H            1    LIG   0.0000
  27 H            0.5311     0.9388     5.5173 H            1    LIG   0.0000
@<TRIPOS>BOND
   1        1        2 1
   2        2        3 1
   3        3        4 1
   4        4        2 1
   5        4        5 1
   6        5        6 1
   7        6        7 1
   8        7        8 ar
   9        8        9 ar
  10        9       10 ar
  11       10       11 ar
  12       11       12 ar
  13       12        7 ar
  14       12       13 1
  15        2       14 1
  16        4       15 1
  17        1       16 1
  18        1       17 1
  19        1       18 1
  20        3       19 1
  21        3       20 1
  22        5       21 1
  23        5       22 1
  24        8       23 1
  25        9       24 1
  26       10       25 1
  27       11       26 1
  28       13       27 1

@<TRIPOS>MOLECULE

  27   28
SMALL
USER_CHARGES
@<TRIPOS>ATOM
   1 C1          -0.5084    -0.4781    -0.7663 C.3          1    LIG   0.0000
   2 C2           0.4752     0.4752    -1.4266 C.3          1    LIG   0.0000
   3 C3           0.1089     1.9069    -1.1511 C.3          1    LIG   0.0000
   4 C4           1.2926     1.2926    -0.4630 C.3          1    LIG   0.0000
   5 C5           1.0000     1.0000     1.0000 C.3          1    LIG   0.0000
   6 S6           2.0450     2.0450     2.0450 S.3          1    LIG   0.0000
   7 C7           0.8781     2.9571     2.9571 C.ar         1    LIG   0.0000
   8 C8           0.4134     2.4676     4.1729 C.ar         1    LIG   0.0000
   9 C9          -0.5192     3.1951     4.9042 C.ar         1    LIG   0.0000
  10 C10         -0.9873     4.4115     4.4194 C.ar         1    LIG   0.0000
  11 C11         -0.5222     4.9007     3.2032 C.ar         1    LIG   0.0000
  12 C12          0.4103     4.1736     2.4722 C.ar         1    LIG   0.0000
  13 O13          0.8651     4.6432     1.2914 O.3          1    LIG   0.0000
  14 H            0.8659     0.2343    -2.3150 H            1    LIG   0.0000
  15 H            2.2131     1.5804    -0.7275 H            1    LIG   0.0000
  16 H           -1.0093    -0.9809    -1.4708 H            1    LIG   0.0000
  17 H           -0.0098    -1.1232    -0.1873 H            1    LIG   0.0000
  18 H           -1.1529     0.0428    -0.2067 H            1    LIG   0.0000
  19 H            0.2464     2.6024    -1.8563 H            1    LIG   0.0000
  20 H           -0.7172     2.1198    -0.6294 H            1    LIG   0.0000
  21 H            0.0377     1.1925     1.1925 H            1    LIG   0.0000
  22 H            1.1925     0.0377     1.1925 H            1    LIG   0.0000
  23 H            0.7498     1.5927     4.5212 H            1    LIG   0.0000
  24 H           -0.8532     2.8436     5.7788 H            1    LIG   0.0000
  25 H           -1.6583     4.9344     4.9450 H            1    LIG   0.0000
  26 H           -0.8586     5.7756     2.8547 H            1    LIG   0.0000
  27 H            0.5314     5.5175     0.9390 H            1    LIG   0.0000
@<TRIPOS>BOND
   1        1        2 1
   2        2        3 1
   3        3        4 1
   4        4        2 1
   5        4        5 1
   6        5        6 1
   7        6        7 1
   8        7        8 ar
   9        8        9 ar
  10        9       10 ar
  11       10       11 ar
  12       11       12 ar
  13       12        7 ar
  14       12       13 1
  15        2       14 1
  16        4       15 1
  17        1       16 1
  18        1       17 1
  19        1       18 1
  20        3       19 1
  21        3       20 1
  22        5       21 1
  23        5       22 1
  24        8       23 1
  25        9       24 1
  26       10       25 1
  27       11       26 1
  28       13       27 1

@<TRIPOS>MOLECULE

  27   28
SMALL
USER_CHARGES
@<TRIPOS>ATOM
   1 C1          -0.5084    -0.4781    -0.7663 C.3          1    LIG   0.0000
   2 C2           0.4752     0.4752    -1.4266 C.3          1    LIG   0.0000
   3 C3           0.1089     1.9069    -1.1511 C.3          1    LIG   0.0000
   4 C4           1.2926     1.2926    -0.4630 C.3          1    LIG   0.0000
   5 C5           1.0000     1.0000     1.0000 C.3          1    LIG   0.0000
   6 S6           2.0450     2.0450     2.0450 S.3          1    LIG   0.0000
   7 C7           3.6290     1.3732     1.7900 C.ar         1    LIG   0.0000
   8 C8           3.7918     0.2882     0.9356 C.ar         1    LIG   0.0000
   9 C9           5.0573    -0.2505     0.7297 C.ar         1    LIG   0.0000
  10 C10          6.1594     0.2955     1.3786 C.ar         1    LIG   0.0000
  11 C11          5.9960     1.3808     2.2331 C.ar         1    LIG   0.0000
  12 C12          4.7311     1.9195     2.4388 C.ar         1    LIG   0.0000
  13 O13          4.5664     2.9725     3.2669 O.3          1    LIG   0.0000
  14 H            0.8659     0.2343    -2.3150 H            1    LIG   0.0000
  15 H            2.2131     1.5804    -0.7275 H            1    LIG   0.0000
  16 H           -1.0093    -0.9809    -1.4708 H            1    LIG   0.0000
  17 H           -0.0098    -1.1232    -0.1873 H            1    LIG   0.0000
  18 H           -1.1529     0.0428    -0.2067 H            1    LIG   0.0000
  19 H            0.2464     2.6024    -1.8563 H            1    LIG   0.0000
  20 H           -0.7172     2.1198    -0.6294 H            1    LIG   0.0000
  21 H            0.0377     1.1925     1.1925 H            1    LIG   0.0000
  22 H            1.1925     0.0377     1.1925 H            1    LIG   0.0000
  23 H            2.9992    -0.1046     0.4694 H            1    LIG   0.0000
  24 H            5.1747    -1.0304     0.1150 H            1    LIG   0.0000
  25 H            7.0693    -0.0921     1.2310 H            1    LIG   0.0000
  26 H            6.7886     1.7737     2.6995 H            1    LIG   0.0000
  27 H            5.3561     3.3685     3.7354 H            1    LIG   0.0000
@<TRIPOS>BOND
   1        1        2 1
   2        2        3 1
   3        3        4 1
   4        4        2 1
   5        4        5 1
   6        5        6 1
   7        6        7 1
   8        7        8 ar
   9        8        9 ar
  10        9       10 ar
  11       10       11 ar
  12       11       12 ar
  13       12        7 ar
  14       12       13 1
  15        2       14 1
  16        4       15 1
  17        1       16 1
  18        1       17 1
  19        1       18 1
  20        3       19 1
  21        3       20 1
  22        5       21 1
  23        5       22 1
  24        8       23 1
  25        9       24 1
  26       10       25 1
  27       11       26 1
  28       13       27 1

@<TRIPOS>MOLECULE

  27   28
SMALL
USER_CHARGES
@<TRIPOS>ATOM
   1 C1          -0.5084    -0.4781    -0.7663 C.3          1    LIG   0.0000
   2 C2           0.4752     0.4752    -1.4266 C.3          1    LIG   0.0000
   3 C3           0.1089     1.9069    -1.1511 C.3          1    LIG   0.0000
   4 C4           1.2926     1.2926    -0.4630 C.3          1    LIG   0.0000
   5 C5           1.0000     1.0000     1.0000 C.3          1    LIG   0.0000
   6 S6           2.0450     2.0450     2.0450 S.3          1    LIG   0.0000
   7 C7           3.6290     1.3732     1.7900 C.ar         1    LIG   0.0000
   8 C8           4.0888     0.3514     2.6137 C.ar         1    LIG   0.0000
   9 C9           5.3546    -0.1877     2.4116 C.ar         1    LIG   0.0000
  10 C10          6.1605     0.2953     1.3864 C.ar         1    LIG   0.0000
  11 C11          5.7002     1.3173     0.5628 C.ar         1    LIG   0.0000
  12 C12          4.4347     1.8561     0.7646 C.ar         1    LIG   0.0000
  13 O13          3.9827     2.8480    -0.0313 O.3          1    LIG   0.0000
  14 H            0.8659     0.2343    -2.3150 H            1    LIG   0.0000
  15 H            2.2131     1.5804    -0.7275 H            1    LIG   0.0000
  16 H           -1.0093    -0.9809    -1.4708 H            1    LIG   0.0000
  17 H           -0.0098    -1.1232    -0.1873 H            1    LIG   0.0000
  18 H           -1.1529     0.0428    -0.2067 H            1    LIG   0.0000
  19 H            0.2464     2.6024    -1.8563 H            1    LIG   0.0000
  20 H           -0.7172     2.1198    -0.6294 H            1    LIG   0.0000
  21 H            0.0377     1.1925     1.1925 H            1    LIG   0.0000
  22 H            1.1925     0.0377     1.1925 H            1    LIG   0.0000
  23 H            3.5093     0.0045     3.3511 H            1    LIG   0.0000
  24 H            5.6853    -0.9228     3.0035 H            1    LIG   0.0000
  25 H            7.0710    -0.0920     1.2414 H            1    LIG   0.0000
  26 H            6.2796     1.6645    -0.1746 H            1    LIG   0.0000
  27 H            4.5587     3.1983    -0.7699 H            1    LIG   0.0000
@<TRIPOS>BOND
   1        1        2 1
   2        2        3 1
   3        3        4 1
   4        4        2 1
   5        4        5 1
   6        5        6 1
   7        6        7 1
   8        7        8 ar
   9        8        9 ar
  10        9       10 ar
  11       10       11 ar
  12       11       12 ar
  13       12        7 ar
  14       12       13 1
  15        2       14 1
  16        4       15 1
  17        1       16 1
  18        1       17 1
  19        1       18 1
  20        3       19 1
  21        3       20 1
  22        5       21 1
  23        5       22 1
  24        8       23 1
  25        9       24 1
  26       10       25 1
  27       11       26 1
  28       13       27 1

@<TRIPOS>MOLECULE

  27   28
SMALL
USER_CHARGES
@<TRIPOS>ATOM
   1 C1          -0.5084    -0.4781    -0.7663 C.3          1    LIG   0.0000
   2 C2           0.4752     0.4752    -1.4266 C.3          1    LIG   0.0000
   3 C3           0.1089     1.9069    -1.1511 C.3          1    LIG   0.0000
   4 C4           1.2926     1.2926    -0.4630 C.3          1    LIG   0.0000
   5 C5           1.0000     1.0000     1.0000 C.3          1    LIG   0.0000
   6 S6           2.0450     2.0450     2.0450 S.3          1    LIG   0.0000
   7 C7           3.6290     1.3732     1.7900 C.ar         1    LIG   0.0000
   8 C8           4.4307     1.8599     0.7633 C.ar         1    LIG   0.0000
   9 C9           5.6977     1.3248     0.5577 C.ar         1    LIG   0.0000
  10 C10          6.1624     0.3028     1.3783 C.ar         1    LIG   0.0000
  11 C11          5.3602    -0.1837     2.4052 C.ar         1    LIG   0.0000
  12 C12          4.0937     0.3514     2.6110 C.ar         1    LIG   0.0000
  13 O13          3.3107    -0.1167     3.6057 O.3          1    LIG   0.0000
  14 H            0.8659     0.2343    -2.3150 H            1    LIG   0.0000
  15 H            2.2131     1.5804    -0.7275 H            1    LIG   0.0000
  16 H           -1.0093    -0.9809    -1.4708 H            1    LIG   0.0000
  17 H           -0.0098    -1.1232    -0.1873 H            1    LIG   0.0000
  18 H           -1.1529     0.0428    -0.2067 H            1    LIG   0.0000
  19 H            0.2464     2.6024    -1.8563 H            1    LIG   0.0000
  20 H           -0.7172     2.1198    -0.6294 H            1    LIG   0.0000
  21 H            0.0377     1.1925     1.1925 H            1    LIG   0.0000
  22 H            1.1925     0.0377     1.1925 H            1    LIG   0.0000
  23 H            4.0962     2.5945     0.1730 H            1    LIG   0.0000
  24 H            6.2746     1.6749    -0.1803 H            1    LIG   0.0000
  25 H            7.0733    -0.0824     1.2302 H            1    LIG   0.0000
  26 H            5.6944    -0.9184     2.9956 H            1    LIG   0.0000
  27 H            3.6409    -0.8513     4.1984 H            1    LIG   0.0000
@<TRIPOS>BOND
   1        1        2 1
   2        2        3 1
   3        3        4 1
   4        4        2 1
   5        4        5 1
   6        5        6 1
   7        6        7 1
   8        7        8 ar
   9        8        9 ar
  10        9       10 ar
  11       10       11 ar
  12       11       12 ar
  13       12        7 ar
  14       12       13 1
  15        2       14 1
  16        4       15 1
  17        1       16 1
  18        1       17 1
  19        1       18 1
  20        3       19 1
  21        3       20 1
  22        5       21 1
  23        5       22 1
  24        8       23 1
  25        9       24 1
  26       10       25 1
  27       11       26 1
  28       13       27 1

@<TRIPOS>MOLECULE

  27   28
SMALL
USER_CHARGES
@<TRIPOS>ATOM
   1 C1          -0.5084    -0.4781    -0.7663 C.3          1    LIG   0.0000
   2 C2           0.4752     0.4752    -1.4266 C.3          1    LIG   0.0000
   3 C3           0.1089     1.9069    -1.1511 C.3          1    LIG   0.0000
   4 C4           1.2926     1.2926    -0.4630 C.3          1    LIG   0.0000
   5 C5           1.0000     1.0000     1.0000 C.3          1    LIG   0.0000
   6 S6           2.0450     2.0450     2.0450 S.3          1    LIG   0.0000
   7 C7           1.3732     3.6290     1.7900 C.ar         1    LIG   0.0000
   8 C8           1.8599     4.4307     0.7633 C.ar         1    LIG   0.0000
   9 C9           1.3241     5.6973     0.5571 C.ar         1    LIG   0.0000
  10 C10          0.3023     6.1621     1.3779 C.ar         1    LIG   0.0000
  11 C11         -0.1843     5.3598     2.4047 C.ar         1    LIG   0.0000
  12 C12          0.3511     4.0936     2.6107 C.ar         1    LIG   0.0000
  13 O13         -0.1168     3.3106     3.6056 O.3          1    LIG   0.0000
  14 H            0.8659     0.2343    -2.3150 H            1    LIG   0.0000
  15 H            2.2131     1.5804    -0.7275 H            1    LIG   0.0000
  16 H           -1.0093    -0.9809    -1.4708 H            1    LIG   0.0000
  17 H           -0.0098    -1.1232    -0.1873 H            1    LIG   0.0000
  18 H           -1.1529     0.0428    -0.2067 H            1    LIG   0.0000
  19 H            0.2464     2.6024    -1.8563 H            1    LIG   0.0000
  20 H           -0.7172     2.1198    -0.6294 H            1    LIG   0.0000
  21 H            0.0377     1.1925     1.1925 H            1    LIG   0.0000
  22 H            1.1925     0.0377     1.1925 H            1    LIG   0.0000
  23 H            2.5950     4.0965     0.1734 H            1    LIG   0.0000
  24 H            1.6736     6.2739    -0.1814 H            1    LIG   0.0000
  25 H           -0.0827     7.0731     1.2299 H            1    LIG   0.0000
  26 H           -0.9193     5.6939     2.9948 H            1    LIG   0.0000
  27 H           -0.8516     3.6407     4.1981 H            1    LIG   0.0000
@<TRIPOS>BOND
   1        1        2 1
   2        2        3 1
   3        3        4 1
   4        4        2 1
   5        4        5 1
   6        5        6 1
   7        6        7 1
   8        7        8 ar
   9        8        9 ar
  10        9       10 ar
  11       10       11 ar
  12       11       12 ar
  13       12        7 ar
  14       12       13 1
  15        2       14 1
  16        4       15 1
  17        1       16 1
  18        1       17 1
  19        1       18 1
  20        3       19 1
  21        3       20 1
  22        5       21 1
  23        5       22 1
  24        8       23 1
  25        9       24 1
  26       10       25 1
  27       11       26 1
  28       13       27 1

@<TRIPOS>MOLECULE

  27   28
SMALL
USER_CHARGES
@<TRIPOS>ATOM
   1 C1          -0.5084    -0.4781    -0.7663 C.3          1    LIG   0.0000
   2 C2           0.4752     0.4752    -1.4266 C.3          1    LIG   0.0000
   3 C3           0.1089     1.9069    -1.1511 C.3          1    LIG   0.0000
   4 C4           1.2926     1.2926    -0.4630 C.3          1    LIG   0.0000
   5 C5           1.0000     1.0000     1.0000 C.3          1    LIG   0.0000
   6 S6           2.0450     2.0450     2.0450 S.3          1    LIG   0.0000
   7 C7           1.3732     3.6290     1.7900 C.ar         1    LIG   0.0000
   8 C8           0.3514     4.0888     2.6137 C.ar         1    LIG   0.0000
   9 C9          -0.1871     5.3550     2.4122 C.ar         1    LIG   0.0000
  10 C10          0.2958     6.1608     1.3869 C.ar         1    LIG   0.0000
  11 C11          1.3179     5.7005     0.5633 C.ar         1    LIG   0.0000
  12 C12          1.8564     4.4349     0.7649 C.ar         1    LIG   0.0000
  13 O13          2.8482     3.9827    -0.0312 O.3          1    LIG   0.0000
  14 H            0.8659     0.2343    -2.3150 H            1    LIG   0.0000
  15 H            2.2131     1.5804    -0.7275 H            1    LIG   0.0000
  16 H           -1.0093    -0.9809    -1.4708 H            1    LIG   0.0000
  17 H           -0.0098    -1.1232    -0.1873 H            1    LIG   0.0000
  18 H           -1.1529     0.0428    -0.2067 H            1    LIG   0.0000
  19 H            0.2464     2.6024    -1.8563 H            1    LIG   0.0000
  20 H           -0.7172     2.1198    -0.6294 H            1    LIG   0.0000
  21 H            0.0377     1.1925     1.1925 H            1    LIG   0.0000
  22 H            1.1925     0.0377     1.1925 H            1    LIG   0.0000
  23 H            0.0040     3.5090     3.3507 H            1    LIG   0.0000
  24 H           -0.9215     5.6861     3.0047 H            1    LIG   0.0000
  25 H           -0.0917     7.0712     1.2417 H            1    LIG   0.0000
  26 H            1.6653     6.2801    -0.1738 H            1    LIG   0.0000
  27 H            3.1986     4.5589    -0.7696 H            1    LIG   0.0000
@<TRIPOS>BOND
   1        1        2 1
   2        2        3 1
   3        3        4 1
   4        4        2 1
   5        4        5 1
   6        5        6 1
   7        6        7 1
   8        7        8 ar
   9        8        9 ar
  10        9       10 ar
  11       10       11 ar
  12       11       12 ar
  13       12        7 ar
  14       12       13 1
  15        2       14 1
  16        4       15 1
  17        1       16 1
  18        1       17 1
  19        1       18 1
  20        3       19 1
  21        3       20 1
  22        5       21 1
  23        5       22 1
  24        8       23 1
  25        9       24 1
  26       10       25 1
  27       11       26 1
  28       13       27 1

