@<TRIPOS>MOLECULE
*****
 27 28 0 0 0
SMALL
USER_CHARGES

@<TRIPOS>ATOM
      1 C1         -0.5084   -0.4781   -0.7663 C.3     1  LIG1        0.0000
      2 C2          0.4752    0.4752   -1.4266 C.3     1  LIG1        0.0000
      3 C3          0.1089    1.9069   -1.1511 C.3     1  LIG1        0.0000
      4 C4          1.2926    1.2926   -0.4630 C.3     1  LIG1        0.0000
      5 C5          1.0000    1.0000    1.0000 C.3     1  LIG1        0.0000
      6 S6          2.0450    2.0450    2.0450 S.3     1  LIG1        0.0000
      7 C7          2.9571    0.8781    2.9571 C.ar    1  LIG1        0.0000
      8 C8          4.1729    0.4134    2.4676 C.ar    1  LIG1        0.0000
      9 C9          4.9042   -0.5192    3.1951 C.ar    1  LIG1        0.0000
     10 C10         4.4194   -0.9873    4.4115 C.ar    1  LIG1        0.0000
     11 C11         3.2032   -0.5222    4.9007 C.ar    1  LIG1        0.0000
     12 C12         2.4722    0.4103    4.1736 C.ar    1  LIG1        0.0000
     13 O13         1.2914    0.8651    4.6432 O.3     1  LIG1        0.0000
     14 H           0.8659    0.2343   -2.3150 H       1  LIG1        0.0000
     15 H           2.2131    1.5804   -0.7275 H       1  LIG1        0.0000
     16 H          -1.0093   -0.9809   -1.4708 H       1  LIG1        0.0000
     17 H          -0.0098   -1.1232   -0.1873 H       1  LIG1        0.0000
     18 H          -1.1529    0.0428   -0.2067 H       1  LIG1        0.0000
     19 H           0.2464    2.6024   -1.8563 H       1  LIG1        0.0000
     20 H          -0.7172    2.1198   -0.6294 H       1  LIG1        0.0000
     21 H           0.0377    1.1925    1.1925 H       1  LIG1        0.0000
     22 H           1.1925    0.0377    1.1925 H       1  LIG1        0.0000
     23 H           4.5212    0.7498    1.5927 H       1  LIG1        0.0000
     24 H           5.7788   -0.8532    2.8436 H       1  LIG1        0.0000
     25 H           4.9450   -1.6583    4.9344 H       1  LIG1        0.0000
     26 H           2.8547   -0.8586    5.7756 H       1  LIG1        0.0000
     27 H           0.9390    0.5314    5.5175 H       1  LIG1        0.0000
@<TRIPOS>BOND
     1     1     2    1
     2     2     3    1
     3     3     4    1
     4     4     2    1
     5     4     5    1
     6     5     6    1
     7     6     7    1
     8     7     8   ar
     9     8     9   ar
    10     9    10   ar
    11    10    11   ar
    12    11    12   ar
    13    12     7   ar
    14    12    13    1
    15     2    14    1
    16     4    15    1
    17     1    16    1
    18     1    17    1
    19     1    18    1
    20     3    19    1
    21     3    20    1
    22     5    21    1
    23     5    22    1
    24     8    23    1
    25     9    24    1
    26    10    25    1
    27    11    26    1
    28    13    27    1
