@<TRIPOS>MOLECULE
*****
 27 28 0 0 0
SMALL
USER_CHARGES

@<TRIPOS>ATOM
      1 C1         -0.5084   -0.4781   -0.7663 C.3     1  LIG1        0.0000
      2 C2          0.4752    0.4752   -1.4266 C.3     1  LIG1        0.0000
      3 C3          0.1089    1.9069   -1.1511 C.3     1  LIG1        0.0000
      4 C4          1.2926    1.2926   -0.4630 C.3     1  LIG1        0.0000
      5 C5          1.0000    1.0000    1.0000 C.3     1  LIG1        0.0000
      6 S6          2.0450    2.0450    2.0450 S.3     1  LIG1        0.0000
      7 C7          3.6290    1.3732    1.7900 C.ar    1  LIG1        0.0000
      8 C8          4.4307    1.8599    0.7633 C.ar    1  LIG1        0.0000
      9 C9          5.6977    1.3248    0.5577 C.ar    1  LIG1        0.0000
     10 C10         6.1624    0.3028    1.3783 C.ar    1  LIG1        0.0000
     11 C11         5.3602   -0.1837    2.4052 C.ar    1  LIG1        0.0000
     12 C12         4.0937    0.3514    2.6110 C.ar    1  LIG1        0.0000
     13 O13         3.3107   -0.1167    3.6057 O.3     1  LIG1        0.0000
     14 H           0.8659    0.2343   -2.3150 H       1  LIG1        0.0000
     15 H           2.2131    1.5804   -0.7275 H       1  LIG1        0.0000
     16 H          -1.0093   -0.9809   -1.4708 H       1  LIG1        0.0000
     17 H          -0.0098   -1.1232   -0.1873 H       1  LIG1        0.0000
     18 H          -1.1529    0.0428   -0.2067 H       1  LIG1        0.0000
     19 H           0.2464    2.6024   -1.8563 H       1  LIG1        0.0000
     20 H          -0.7172    2.1198   -0.6294 H       1  LIG1        0.0000
     21 H           0.0377    1.1925    1.1925 H       1  LIG1        0.0000
     22 H           1.1925    0.0377    1.1925 H       1  LIG1        0.0000
     23 H           4.0962    2.5945    0.1730 H       1  LIG1        0.0000
     24 H           6.2746    1.6749   -0.1803 H       1  LIG1        0.0000
     25 H           7.0733   -0.0824    1.2302 H       1  LIG1        0.0000
     26 H           5.6944   -0.9184    2.9956 H       1  LIG1        0.0000
     27 H           3.6409   -0.8513    4.1984 H       1  LIG1        0.0000
@<TRIPOS>BOND
     1     1     2    1
     2     2     3    1
     3     3     4    1
     4     4     2    1
     5     4     5    1
     6     5     6    1
     7     6     7    1
     8     7     8   ar
     9     8     9   ar
    10     9    10   ar
    11    10    11   ar
    12    11    12   ar
    13    12     7   ar
    14    12    13    1
    15     2    14    1
    16     4    15    1
    17     1    16    1
    18     1    17    1
    19     1    18    1
    20     3    19    1
    21     3    20    1
    22     5    21    1
    23     5    22    1
    24     8    23    1
    25     9    24    1
    26    10    25    1
    27    11    26    1
    28    13    27    1
