@<TRIPOS>MOLECULE
*****
 27 28 0 0 0
SMALL
USER_CHARGES

@<TRIPOS>ATOM
      1 C1         -0.5084   -0.4781   -0.7663 C.3     1  LIG1        0.0000
      2 C2          0.4752    0.4752   -1.4266 C.3     1  LIG1        0.0000
      3 C3          0.1089    1.9069   -1.1511 C.3     1  LIG1        0.0000
      4 C4          1.2926    1.2926   -0.4630 C.3     1  LIG1        0.0000
      5 C5          1.0000    1.0000    1.0000 C.3     1  LIG1        0.0000
      6 S6          2.0450    2.0450    2.0450 S.3     1  LIG1        0.0000
      7 C7          1.5711    1.5711    3.6501 C.ar    1  LIG1        0.0000
      8 C8          2.2350    0.5297    4.2892 C.ar    1  LIG1        0.0000
      9 C9          1.8583    0.1492    5.5726 C.ar    1  LIG1        0.0000
     10 C10         0.8175    0.8097    6.2163 C.ar    1  LIG1        0.0000
     11 C11         0.1537    1.8513    5.5767 C.ar    1  LIG1        0.0000
     12 C12         0.5305    2.2318    4.2938 C.ar    1  LIG1        0.0000
     13 O13        -0.1101    3.2418    3.6680 O.3     1  LIG1        0.0000
     14 H           0.8659    0.2343   -2.3150 H       1  LIG1        0.0000
     15 H           2.2131    1.5804   -0.7275 H       1  LIG1        0.0000
     16 H          -1.0093   -0.9809   -1.4708 H       1  LIG1        0.0000
     17 H          -0.0098   -1.1232   -0.1873 H       1  LIG1        0.0000
     18 H          -1.1529    0.0428   -0.2067 H       1  LIG1        0.0000
     19 H           0.2464    2.6024   -1.8563 H       1  LIG1        0.0000
     20 H          -0.7172    2.1198   -0.6294 H       1  LIG1        0.0000
     21 H           0.0377    1.1925    1.1925 H       1  LIG1        0.0000
     22 H           1.1925    0.0377    1.1925 H       1  LIG1        0.0000
     23 H           2.9831    0.0546    3.8260 H       1  LIG1        0.0000
     24 H           2.3359   -0.5993    6.0326 H       1  LIG1        0.0000
     25 H           0.5463    0.5357    7.1390 H       1  LIG1        0.0000
     26 H          -0.5945    2.3264    6.0397 H       1  LIG1        0.0000
     27 H          -0.8589    3.7196    4.1272 H       1  LIG1        0.0000
@<TRIPOS>BOND
     1     1     2    1
     2     2     3    1
     3     3     4    1
     4     4     2    1
     5     4     5    1
     6     5     6    1
     7     6     7    1
     8     7     8   ar
     9     8     9   ar
    10     9    10   ar
    11    10    11   ar
    12    11    12   ar
    13    12     7   ar
    14    12    13    1
    15     2    14    1
    16     4    15    1
    17     1    16    1
    18     1    17    1
    19     1    18    1
    20     3    19    1
    21     3    20    1
    22     5    21    1
    23     5    22    1
    24     8    23    1
    25     9    24    1
    26    10    25    1
    27    11    26    1
    28    13    27    1
