@<TRIPOS>MOLECULE

  68   71
SMALL
USER_CHARGES
@<TRIPOS>ATOM
   1 C1          -7.6218     4.6711    -0.6373 C.3          1    LIG   0.0000
   2 C2          -6.7787     3.5122    -1.1438 C.3          1    LIG   0.0000
   3 O3          -5.4820     3.5837    -0.5696 O.3          1    LIG   0.0000
   4 C4          -4.6531     2.6349    -0.9285 C.2          1    LIG   0.0000
   5 O5          -5.0113     1.7833    -1.6943 O.2          1    LIG   0.0000
   6 C6          -3.3037     2.6137    -0.4009 C.2          1    LIG   0.0000
   7 C7          -2.7434     3.5372     0.5096 C.2          1    LIG   0.0000
   8 N8          -1.5122     3.1435     0.7160 N.2          1    LIG   0.0000
   9 N9          -1.2406     2.0627     0.0249 N.pl3        1    LIG   0.0000
  10 C10         -0.0164     1.3781     0.0095 C.ar         1    LIG   0.0000
  11 C11          1.1713     2.1017     0.0040 C.ar         1    LIG   0.0000
  12 C12          2.3819     1.4172    -0.0109 C.ar         1    LIG   0.0000
  13 C13          2.3938     0.0256    -0.0213 C.ar         1    LIG   0.0000
  14 C14          3.6615    -0.6793    -0.0364 C.2          1    LIG   0.0000
  15 O15          4.6577    -0.1148    -0.3954 O.2          1    LIG   0.0000
  16 N16          3.7214    -1.9896     0.3593 N.am         1    LIG   0.0000
  17 C17          4.9452    -2.6701     0.3448 C.ar         1    LIG   0.0000
  18 C18          5.9104    -2.3114    -0.5900 C.ar         1    LIG   0.0000
  19 C19          7.1286    -2.9830    -0.6098 C.ar         1    LIG   0.0000
  20 C20          7.3736    -4.0051     0.3001 C.ar         1    LIG   0.0000
  21 C21          8.6439    -4.7041     0.2764 C.2          1    LIG   0.0000
  22 O22          8.9855    -5.2946    -0.7108 O.2          1    LIG   0.0000
  23 N23          9.4704    -4.6899     1.4035 N.am         1    LIG   0.0000
  24 C24         10.7508    -5.4120     1.3369 C.3          1    LIG   0.0000
  25 C25         11.8276    -4.7382     2.1765 C.3          1    LIG   0.0000
  26 C26         11.3293    -4.3501     3.5612 C.3          1    LIG   0.0000
  27 C27         12.4560    -3.6202     4.2753 C.3          1    LIG   0.0000
  28 C28         10.1894    -3.3582     3.3722 C.3          1    LIG   0.0000
  29 C29          9.0223    -3.9506     2.5953 C.3          1    LIG   0.0000
  30 C30          6.4111    -4.3671     1.2367 C.ar         1    LIG   0.0000
  31 C31          5.1941    -3.6932     1.2539 C.ar         1    LIG   0.0000
  32 C32          4.1441    -4.0916     2.2780 C.3          1    LIG   0.0000
  33 C33          1.2008    -0.6892    -0.0164 C.ar         1    LIG   0.0000
  34 C34         -0.0146    -0.0125    -0.0002 C.ar         1    LIG   0.0000
  35 C35         -2.3445     1.6996    -0.6820 C.2          1    LIG   0.0000
  36 C36         -2.4711     0.5043    -1.6100 C.3          1    LIG   0.0000
  37 H           -8.5350     4.6207    -1.0416 H            1    LIG   0.0000
  38 H           -7.6949     4.6198     0.3587 H            1    LIG   0.0000
  39 H           -7.1900     5.5353    -0.8957 H            1    LIG   0.0000
  40 H           -7.2105     2.6480    -0.8854 H            1    LIG   0.0000
  41 H           -6.7056     3.5635    -2.1398 H            1    LIG   0.0000
  42 H           -3.1961     4.3315     0.9147 H            1    LIG   0.0000
  43 H            1.1551     3.1015     0.0106 H            1    LIG   0.0000
  44 H            3.2435     1.9248    -0.0142 H            1    LIG   0.0000
  45 H            2.8912    -2.4600     0.6585 H            1    LIG   0.0000
  46 H            5.7300    -1.5761    -1.2433 H            1    LIG   0.0000
  47 H            7.8280    -2.7304    -1.2784 H            1    LIG   0.0000
  48 H           11.0554    -5.4428     0.3849 H            1    LIG   0.0000
  49 H           10.6144    -6.3437     1.6735 H            1    LIG   0.0000
  50 H           12.5969    -5.3690     2.2777 H            1    LIG   0.0000
  51 H           12.1338    -3.9124     1.7027 H            1    LIG   0.0000
  52 H           11.0310    -5.1524     4.0782 H            1    LIG   0.0000
  53 H           12.1533    -3.3536     5.1903 H            1    LIG   0.0000
  54 H           13.2499    -4.2238     4.3495 H            1    LIG   0.0000
  55 H           12.7060    -2.8032     3.7556 H            1    LIG   0.0000
  56 H           10.5356    -2.5634     2.8738 H            1    LIG   0.0000
  57 H            9.8622    -3.0707     4.2723 H            1    LIG   0.0000
  58 H            8.5208    -4.5759     3.1933 H            1    LIG   0.0000
  59 H            8.4173    -3.2087     2.3063 H            1    LIG   0.0000
  60 H            6.5916    -5.1026     1.8897 H            1    LIG   0.0000
  61 H            4.4955    -4.8385     2.8425 H            1    LIG   0.0000
  62 H            3.9306    -3.3065     2.8593 H            1    LIG   0.0000
  63 H            3.3153    -4.3921     1.8060 H            1    LIG   0.0000
  64 H            1.2167    -1.6890    -0.0244 H            1    LIG   0.0000
  65 H           -0.8764    -0.5199     0.0045 H            1    LIG   0.0000
  66 H           -3.3930     0.4786    -1.9966 H            1    LIG   0.0000
  67 H           -1.8019     0.5835    -2.3488 H            1    LIG   0.0000
  68 H           -2.3018    -0.3364    -1.0956 H            1    LIG   0.0000
@<TRIPOS>BOND
   1        1        2 1
   2        2        3 1
   3        3        4 1
   4        4        5 2
   5        4        6 1
   6        6        7 1
   7        7        8 2
   8        8        9 1
   9        9       10 1
  10       10       11 ar
  11       11       12 ar
  12       12       13 ar
  13       13       14 1
  14       14       15 2
  15       14       16 am
  16       16       17 1
  17       17       18 ar
  18       18       19 ar
  19       19       20 ar
  20       20       21 1
  21       21       22 2
  22       21       23 am
  23       23       24 1
  24       24       25 1
  25       25       26 1
  26       26       27 1
  27       26       28 1
  28       28       29 1
  29       29       23 1
  30       20       30 ar
  31       30       31 ar
  32       31       17 ar
  33       31       32 1
  34       13       33 ar
  35       33       34 ar
  36       34       10 ar
  37        9       35 1
  38       35        6 2
  39       35       36 1
  40        1       37 1
  41        1       38 1
  42        1       39 1
  43        2       40 1
  44        2       41 1
  45        7       42 1
  46       11       43 1
  47       12       44 1
  48       16       45 1
  49       18       46 1
  50       19       47 1
  51       24       48 1
  52       24       49 1
  53       25       50 1
  54       25       51 1
  55       26       52 1
  56       27       53 1
  57       27       54 1
  58       27       55 1
  59       28       56 1
  60       28       57 1
  61       29       58 1
  62       29       59 1
  63       30       60 1
  64       32       61 1
  65       32       62 1
  66       32       63 1
  67       33       64 1
  68       34       65 1
  69       36       66 1
  70       36       67 1
  71       36       68 1

@<TRIPOS>MOLECULE

  68   71
SMALL
USER_CHARGES
@<TRIPOS>ATOM
   1 C1          -3.1495     6.8500     3.9391 C.3          1    LIG   0.0000
   2 C2          -3.8916     6.1619     2.8049 C.3          1    LIG   0.0000
   3 O3          -3.0598     5.1637     2.2319 O.3          1    LIG   0.0000
   4 C4          -3.5866     4.4934     1.2373 C.2          1    LIG   0.0000
   5 O5          -4.7016     4.7421     0.8700 O.2          1    LIG   0.0000
   6 C6          -2.8228     3.4516     0.5807 C.2          1    LIG   0.0000
   7 C7          -3.2502     2.6538    -0.5040 C.2          1    LIG   0.0000
   8 N8          -2.2541     1.8504    -0.7796 N.2          1    LIG   0.0000
   9 N9          -1.2406     2.0627     0.0249 N.pl3        1    LIG   0.0000
  10 C10         -0.0164     1.3781     0.0095 C.ar         1    LIG   0.0000
  11 C11          1.1713     2.1017     0.0040 C.ar         1    LIG   0.0000
  12 C12          2.3819     1.4172    -0.0109 C.ar         1    LIG   0.0000
  13 C13          2.3938     0.0256    -0.0213 C.ar         1    LIG   0.0000
  14 C14          3.6615    -0.6793    -0.0364 C.2          1    LIG   0.0000
  15 O15          4.6577    -0.1148    -0.3954 O.2          1    LIG   0.0000
  16 N16          3.7214    -1.9896     0.3593 N.am         1    LIG   0.0000
  17 C17          4.9452    -2.6701     0.3448 C.ar         1    LIG   0.0000
  18 C18          5.9104    -2.3114    -0.5900 C.ar         1    LIG   0.0000
  19 C19          7.1286    -2.9830    -0.6098 C.ar         1    LIG   0.0000
  20 C20          7.3736    -4.0051     0.3001 C.ar         1    LIG   0.0000
  21 C21          8.6439    -4.7041     0.2764 C.2          1    LIG   0.0000
  22 O22          8.9855    -5.2946    -0.7108 O.2          1    LIG   0.0000
  23 N23          9.4704    -4.6899     1.4035 N.am         1    LIG   0.0000
  24 C24          9.0132    -3.9538     2.5928 C.3          1    LIG   0.0000
  25 C25          9.4983    -4.6009     3.8830 C.3          1    LIG   0.0000
  26 C26         10.9733    -4.9723     3.8301 C.3          1    LIG   0.0000
  27 C27         11.3243    -5.6769     5.1310 C.3          1    LIG   0.0000
  28 C28         11.1476    -5.9806     2.7024 C.3          1    LIG   0.0000
  29 C29         10.7506    -5.4150     1.3463 C.3          1    LIG   0.0000
  30 C30          6.4111    -4.3671     1.2367 C.ar         1    LIG   0.0000
  31 C31          5.1941    -3.6932     1.2539 C.ar         1    LIG   0.0000
  32 C32          4.1441    -4.0916     2.2780 C.3          1    LIG   0.0000
  33 C33          1.2008    -0.6892    -0.0164 C.ar         1    LIG   0.0000
  34 C34         -0.0146    -0.0125    -0.0002 C.ar         1    LIG   0.0000
  35 C35         -1.5611     3.0650     0.8867 C.2          1    LIG   0.0000
  36 C36         -0.6760     3.6334     1.9819 C.3          1    LIG   0.0000
  37 H           -3.7353     7.5529     4.3425 H            1    LIG   0.0000
  38 H           -2.9086     6.1758     4.6372 H            1    LIG   0.0000
  39 H           -2.3166     7.2740     3.5836 H            1    LIG   0.0000
  40 H           -4.7246     5.7379     3.1604 H            1    LIG   0.0000
  41 H           -4.1325     6.8360     2.1068 H            1    LIG   0.0000
  42 H           -4.1352     2.6946    -0.9678 H            1    LIG   0.0000
  43 H            1.1551     3.1015     0.0106 H            1    LIG   0.0000
  44 H            3.2435     1.9248    -0.0142 H            1    LIG   0.0000
  45 H            2.8912    -2.4600     0.6585 H            1    LIG   0.0000
  46 H            5.7300    -1.5761    -1.2433 H            1    LIG   0.0000
  47 H            7.8280    -2.7304    -1.2784 H            1    LIG   0.0000
  48 H            8.0134    -3.9349     2.5968 H            1    LIG   0.0000
  49 H            9.3641    -3.0184     2.5486 H            1    LIG   0.0000
  50 H            9.3560    -3.9593     4.6367 H            1    LIG   0.0000
  51 H            8.9644    -5.4305     4.0461 H            1    LIG   0.0000
  52 H           11.5464    -4.1652     3.6878 H            1    LIG   0.0000
  53 H           12.2911    -5.9322     5.1215 H            1    LIG   0.0000
  54 H           11.1492    -5.0627     5.9005 H            1    LIG   0.0000
  55 H           10.7634    -6.4992     5.2266 H            1    LIG   0.0000
  56 H           10.5778    -6.7793     2.8957 H            1    LIG   0.0000
  57 H           12.1079    -6.2573     2.6655 H            1    LIG   0.0000
  58 H           11.4641    -4.7861     1.0375 H            1    LIG   0.0000
  59 H           10.6657    -6.1688     0.6946 H            1    LIG   0.0000
  60 H            6.5916    -5.1026     1.8897 H            1    LIG   0.0000
  61 H            4.4955    -4.8385     2.8425 H            1    LIG   0.0000
  62 H            3.9306    -3.3065     2.8593 H            1    LIG   0.0000
  63 H            3.3153    -4.3921     1.8060 H            1    LIG   0.0000
  64 H            1.2167    -1.6890    -0.0244 H            1    LIG   0.0000
  65 H           -0.8764    -0.5199     0.0045 H            1    LIG   0.0000
  66 H           -1.1655     4.3614     2.4618 H            1    LIG   0.0000
  67 H           -0.4390     2.9085     2.6287 H            1    LIG   0.0000
  68 H            0.1593     4.0045     1.5764 H            1    LIG   0.0000
@<TRIPOS>BOND
   1        1        2 1
   2        2        3 1
   3        3        4 1
   4        4        5 2
   5        4        6 1
   6        6        7 1
   7        7        8 2
   8        8        9 1
   9        9       10 1
  10       10       11 ar
  11       11       12 ar
  12       12       13 ar
  13       13       14 1
  14       14       15 2
  15       14       16 am
  16       16       17 1
  17       17       18 ar
  18       18       19 ar
  19       19       20 ar
  20       20       21 1
  21       21       22 2
  22       21       23 am
  23       23       24 1
  24       24       25 1
  25       25       26 1
  26       26       27 1
  27       26       28 1
  28       28       29 1
  29       29       23 1
  30       20       30 ar
  31       30       31 ar
  32       31       17 ar
  33       31       32 1
  34       13       33 ar
  35       33       34 ar
  36       34       10 ar
  37        9       35 1
  38       35        6 2
  39       35       36 1
  40        1       37 1
  41        1       38 1
  42        1       39 1
  43        2       40 1
  44        2       41 1
  45        7       42 1
  46       11       43 1
  47       12       44 1
  48       16       45 1
  49       18       46 1
  50       19       47 1
  51       24       48 1
  52       24       49 1
  53       25       50 1
  54       25       51 1
  55       26       52 1
  56       27       53 1
  57       27       54 1
  58       27       55 1
  59       28       56 1
  60       28       57 1
  61       29       58 1
  62       29       59 1
  63       30       60 1
  64       32       61 1
  65       32       62 1
  66       32       63 1
  67       33       64 1
  68       34       65 1
  69       36       66 1
  70       36       67 1
  71       36       68 1

@<TRIPOS>MOLECULE

  68   71
SMALL
USER_CHARGES
@<TRIPOS>ATOM
   1 C1          -7.6218     4.6711    -0.6373 C.3          1    LIG   0.0000
   2 C2          -6.7787     3.5122    -1.1438 C.3          1    LIG   0.0000
   3 O3          -5.4820     3.5837    -0.5696 O.3          1    LIG   0.0000
   4 C4          -4.6531     2.6349    -0.9285 C.2          1    LIG   0.0000
   5 O5          -5.0113     1.7833    -1.6943 O.2          1    LIG   0.0000
   6 C6          -3.3037     2.6137    -0.4009 C.2          1    LIG   0.0000
   7 C7          -2.7434     3.5372     0.5096 C.2          1    LIG   0.0000
   8 N8          -1.5122     3.1435     0.7160 N.2          1    LIG   0.0000
   9 N9          -1.2406     2.0627     0.0249 N.pl3        1    LIG   0.0000
  10 C10         -0.0164     1.3781     0.0095 C.ar         1    LIG   0.0000
  11 C11          1.1713     2.1017     0.0040 C.ar         1    LIG   0.0000
  12 C12          2.3819     1.4172    -0.0109 C.ar         1    LIG   0.0000
  13 C13          2.3938     0.0256    -0.0213 C.ar         1    LIG   0.0000
  14 C14          3.6615    -0.6793    -0.0364 C.2          1    LIG   0.0000
  15 O15          4.6577    -0.1148    -0.3954 O.2          1    LIG   0.0000
  16 N16          3.7214    -1.9896     0.3593 N.am         1    LIG   0.0000
  17 C17          4.9452    -2.6701     0.3448 C.ar         1    LIG   0.0000
  18 C18          5.9104    -2.3114    -0.5900 C.ar         1    LIG   0.0000
  19 C19          7.1286    -2.9830    -0.6098 C.ar         1    LIG   0.0000
  20 C20          7.3736    -4.0051     0.3001 C.ar         1    LIG   0.0000
  21 C21          8.6439    -4.7041     0.2764 C.2          1    LIG   0.0000
  22 O22          9.6652    -4.0985     0.4499 O.2          1    LIG   0.0000
  23 N23          8.6787    -6.0831     0.0516 N.am         1    LIG   0.0000
  24 C24          9.9888    -6.7530     0.0356 C.3          1    LIG   0.0000
  25 C25          9.9042    -8.1794     0.5616 C.3          1    LIG   0.0000
  26 C26          8.7317    -8.9498    -0.0285 C.3          1    LIG   0.0000
  27 C27          8.7000   -10.3232     0.6233 C.3          1    LIG   0.0000
  28 C28          7.4582    -8.2208     0.3787 C.3          1    LIG   0.0000
  29 C29          7.4060    -6.7952    -0.1517 C.3          1    LIG   0.0000
  30 C30          6.4111    -4.3671     1.2367 C.ar         1    LIG   0.0000
  31 C31          5.1941    -3.6932     1.2539 C.ar         1    LIG   0.0000
  32 C32          4.1441    -4.0916     2.2780 C.3          1    LIG   0.0000
  33 C33          1.2008    -0.6892    -0.0164 C.ar         1    LIG   0.0000
  34 C34         -0.0146    -0.0125    -0.0002 C.ar         1    LIG   0.0000
  35 C35         -2.3445     1.6996    -0.6820 C.2          1    LIG   0.0000
  36 C36         -2.4711     0.5043    -1.6100 C.3          1    LIG   0.0000
  37 H           -8.5350     4.6207    -1.0416 H            1    LIG   0.0000
  38 H           -7.6949     4.6198     0.3587 H            1    LIG   0.0000
  39 H           -7.1900     5.5353    -0.8957 H            1    LIG   0.0000
  40 H           -7.2105     2.6480    -0.8854 H            1    LIG   0.0000
  41 H           -6.7056     3.5635    -2.1398 H            1    LIG   0.0000
  42 H           -3.1961     4.3315     0.9147 H            1    LIG   0.0000
  43 H            1.1551     3.1015     0.0106 H            1    LIG   0.0000
  44 H            3.2435     1.9248    -0.0142 H            1    LIG   0.0000
  45 H            2.8912    -2.4600     0.6585 H            1    LIG   0.0000
  46 H            5.7300    -1.5761    -1.2433 H            1    LIG   0.0000
  47 H            7.8280    -2.7304    -1.2784 H            1    LIG   0.0000
  48 H           10.6239    -6.2345     0.6081 H            1    LIG   0.0000
  49 H           10.3292    -6.7749    -0.9045 H            1    LIG   0.0000
  50 H           10.7513    -8.6575     0.3297 H            1    LIG   0.0000
  51 H            9.8001    -8.1489     1.5557 H            1    LIG   0.0000
  52 H            8.8074    -9.0212    -1.0230 H            1    LIG   0.0000
  53 H            7.9362   -10.8510     0.2517 H            1    LIG   0.0000
  54 H            9.5580   -10.8012     0.4355 H            1    LIG   0.0000
  55 H            8.5848   -10.2207     1.6114 H            1    LIG   0.0000
  56 H            7.4101    -8.1932     1.3772 H            1    LIG   0.0000
  57 H            6.6721    -8.7248     0.0209 H            1    LIG   0.0000
  58 H            7.2043    -6.8223    -1.1308 H            1    LIG   0.0000
  59 H            6.6795    -6.3000     0.3247 H            1    LIG   0.0000
  60 H            6.5916    -5.1026     1.8897 H            1    LIG   0.0000
  61 H            4.4955    -4.8385     2.8425 H            1    LIG   0.0000
  62 H            3.9306    -3.3065     2.8593 H            1    LIG   0.0000
  63 H            3.3153    -4.3921     1.8060 H            1    LIG   0.0000
  64 H            1.2167    -1.6890    -0.0244 H            1    LIG   0.0000
  65 H           -0.8764    -0.5199     0.0045 H            1    LIG   0.0000
  66 H           -3.3930     0.4786    -1.9966 H            1    LIG   0.0000
  67 H           -1.8019     0.5835    -2.3488 H            1    LIG   0.0000
  68 H           -2.3018    -0.3364    -1.0956 H            1    LIG   0.0000
@<TRIPOS>BOND
   1        1        2 1
   2        2        3 1
   3        3        4 1
   4        4        5 2
   5        4        6 1
   6        6        7 1
   7        7        8 2
   8        8        9 1
   9        9       10 1
  10       10       11 ar
  11       11       12 ar
  12       12       13 ar
  13       13       14 1
  14       14       15 2
  15       14       16 am
  16       16       17 1
  17       17       18 ar
  18       18       19 ar
  19       19       20 ar
  20       20       21 1
  21       21       22 2
  22       21       23 am
  23       23       24 1
  24       24       25 1
  25       25       26 1
  26       26       27 1
  27       26       28 1
  28       28       29 1
  29       29       23 1
  30       20       30 ar
  31       30       31 ar
  32       31       17 ar
  33       31       32 1
  34       13       33 ar
  35       33       34 ar
  36       34       10 ar
  37        9       35 1
  38       35        6 2
  39       35       36 1
  40        1       37 1
  41        1       38 1
  42        1       39 1
  43        2       40 1
  44        2       41 1
  45        7       42 1
  46       11       43 1
  47       12       44 1
  48       16       45 1
  49       18       46 1
  50       19       47 1
  51       24       48 1
  52       24       49 1
  53       25       50 1
  54       25       51 1
  55       26       52 1
  56       27       53 1
  57       27       54 1
  58       27       55 1
  59       28       56 1
  60       28       57 1
  61       29       58 1
  62       29       59 1
  63       30       60 1
  64       32       61 1
  65       32       62 1
  66       32       63 1
  67       33       64 1
  68       34       65 1
  69       36       66 1
  70       36       67 1
  71       36       68 1

@<TRIPOS>MOLECULE

  68   71
SMALL
USER_CHARGES
@<TRIPOS>ATOM
   1 C1          -6.6910     0.6772    -3.1776 C.3          1    LIG   0.0000
   2 C2          -6.3839     1.8181    -2.2213 C.3          1    LIG   0.0000
   3 O3          -5.0442     1.7052    -1.7645 O.3          1    LIG   0.0000
   4 C4          -4.6531     2.6349    -0.9285 C.2          1    LIG   0.0000
   5 O5          -5.4124     3.5041    -0.5998 O.2          1    LIG   0.0000
   6 C6          -3.3037     2.6137    -0.4009 C.2          1    LIG   0.0000
   7 C7          -2.7434     3.5372     0.5096 C.2          1    LIG   0.0000
   8 N8          -1.5122     3.1435     0.7160 N.2          1    LIG   0.0000
   9 N9          -1.2406     2.0627     0.0249 N.pl3        1    LIG   0.0000
  10 C10         -0.0164     1.3781     0.0095 C.ar         1    LIG   0.0000
  11 C11          1.1713     2.1017     0.0040 C.ar         1    LIG   0.0000
  12 C12          2.3819     1.4172    -0.0109 C.ar         1    LIG   0.0000
  13 C13          2.3938     0.0256    -0.0213 C.ar         1    LIG   0.0000
  14 C14          3.6615    -0.6793    -0.0364 C.2          1    LIG   0.0000
  15 O15          4.6577    -0.1148    -0.3954 O.2          1    LIG   0.0000
  16 N16          3.7214    -1.9896     0.3593 N.am         1    LIG   0.0000
  17 C17          4.9452    -2.6701     0.3448 C.ar         1    LIG   0.0000
  18 C18          5.9104    -2.3114    -0.5900 C.ar         1    LIG   0.0000
  19 C19          7.1286    -2.9830    -0.6098 C.ar         1    LIG   0.0000
  20 C20          7.3736    -4.0051     0.3001 C.ar         1    LIG   0.0000
  21 C21          8.6439    -4.7041     0.2764 C.2          1    LIG   0.0000
  22 O22          9.0957    -5.1619     1.2895 O.2          1    LIG   0.0000
  23 N23          9.3465    -4.8454    -0.9341 N.am         1    LIG   0.0000
  24 C24          8.8363    -4.3032    -2.2011 C.3          1    LIG   0.0000
  25 C25          9.3305    -5.2241    -3.3054 C.3          1    LIG   0.0000
  26 C26         10.8368    -5.1092    -3.4767 C.3          1    LIG   0.0000
  27 C27         11.2081    -3.9322    -4.3652 C.3          1    LIG   0.0000
  28 C28         11.4460    -4.8682    -2.1061 C.3          1    LIG   0.0000
  29 C29         10.6386    -5.5435    -1.0073 C.3          1    LIG   0.0000
  30 C30          6.4111    -4.3671     1.2367 C.ar         1    LIG   0.0000
  31 C31          5.1941    -3.6932     1.2539 C.ar         1    LIG   0.0000
  32 C32          4.1441    -4.0916     2.2780 C.3          1    LIG   0.0000
  33 C33          1.2008    -0.6892    -0.0164 C.ar         1    LIG   0.0000
  34 C34         -0.0146    -0.0125    -0.0002 C.ar         1    LIG   0.0000
  35 C35         -2.3445     1.6996    -0.6820 C.2          1    LIG   0.0000
  36 C36         -2.4711     0.5043    -1.6100 C.3          1    LIG   0.0000
  37 H           -7.6345     0.7567    -3.4993 H            1    LIG   0.0000
  38 H           -6.0679     0.7199    -3.9585 H            1    LIG   0.0000
  39 H           -6.5728    -0.1956    -2.7041 H            1    LIG   0.0000
  40 H           -6.5022     2.6909    -2.6948 H            1    LIG   0.0000
  41 H           -7.0071     1.7754    -1.4404 H            1    LIG   0.0000
  42 H           -3.1961     4.3315     0.9147 H            1    LIG   0.0000
  43 H            1.1551     3.1015     0.0106 H            1    LIG   0.0000
  44 H            3.2435     1.9248    -0.0142 H            1    LIG   0.0000
  45 H            2.8912    -2.4600     0.6585 H            1    LIG   0.0000
  46 H            5.7300    -1.5761    -1.2433 H            1    LIG   0.0000
  47 H            7.8280    -2.7304    -1.2784 H            1    LIG   0.0000
  48 H            9.1848    -3.3769    -2.3440 H            1    LIG   0.0000
  49 H            7.8366    -4.2852    -2.1898 H            1    LIG   0.0000
  50 H            9.0990    -6.1685    -3.0718 H            1    LIG   0.0000
  51 H            8.8836    -4.9741    -4.1643 H            1    LIG   0.0000
  52 H           11.1998    -5.9559    -3.8655 H            1    LIG   0.0000
  53 H           12.2027    -3.8848    -4.4573 H            1    LIG   0.0000
  54 H           10.7951    -4.0527    -5.2679 H            1    LIG   0.0000
  55 H           10.8707    -3.0851    -3.9546 H            1    LIG   0.0000
  56 H           11.4723    -3.8840    -1.9312 H            1    LIG   0.0000
  57 H           12.3768    -5.2335    -2.0960 H            1    LIG   0.0000
  58 H           10.4959    -6.5081    -1.2291 H            1    LIG   0.0000
  59 H           11.1189    -5.4699    -0.1333 H            1    LIG   0.0000
  60 H            6.5916    -5.1026     1.8897 H            1    LIG   0.0000
  61 H            4.4955    -4.8385     2.8425 H            1    LIG   0.0000
  62 H            3.9306    -3.3065     2.8593 H            1    LIG   0.0000
  63 H            3.3153    -4.3921     1.8060 H            1    LIG   0.0000
  64 H            1.2167    -1.6890    -0.0244 H            1    LIG   0.0000
  65 H           -0.8764    -0.5199     0.0045 H            1    LIG   0.0000
  66 H           -3.3930     0.4786    -1.9966 H            1    LIG   0.0000
  67 H           -1.8019     0.5835    -2.3488 H            1    LIG   0.0000
  68 H           -2.3018    -0.3364    -1.0956 H            1    LIG   0.0000
@<TRIPOS>BOND
   1        1        2 1
   2        2        3 1
   3        3        4 1
   4        4        5 2
   5        4        6 1
   6        6        7 1
   7        7        8 2
   8        8        9 1
   9        9       10 1
  10       10       11 ar
  11       11       12 ar
  12       12       13 ar
  13       13       14 1
  14       14       15 2
  15       14       16 am
  16       16       17 1
  17       17       18 ar
  18       18       19 ar
  19       19       20 ar
  20       20       21 1
  21       21       22 2
  22       21       23 am
  23       23       24 1
  24       24       25 1
  25       25       26 1
  26       26       27 1
  27       26       28 1
  28       28       29 1
  29       29       23 1
  30       20       30 ar
  31       30       31 ar
  32       31       17 ar
  33       31       32 1
  34       13       33 ar
  35       33       34 ar
  36       34       10 ar
  37        9       35 1
  38       35        6 2
  39       35       36 1
  40        1       37 1
  41        1       38 1
  42        1       39 1
  43        2       40 1
  44        2       41 1
  45        7       42 1
  46       11       43 1
  47       12       44 1
  48       16       45 1
  49       18       46 1
  50       19       47 1
  51       24       48 1
  52       24       49 1
  53       25       50 1
  54       25       51 1
  55       26       52 1
  56       27       53 1
  57       27       54 1
  58       27       55 1
  59       28       56 1
  60       28       57 1
  61       29       58 1
  62       29       59 1
  63       30       60 1
  64       32       61 1
  65       32       62 1
  66       32       63 1
  67       33       64 1
  68       34       65 1
  69       36       66 1
  70       36       67 1
  71       36       68 1

@<TRIPOS>MOLECULE

  68   71
SMALL
USER_CHARGES
@<TRIPOS>ATOM
   1 C1          -6.8539     6.0465    -0.7375 C.3          1    LIG   0.0000
   2 C2          -5.4788     5.8415    -1.3519 C.3          1    LIG   0.0000
   3 O3          -4.8065     4.7939    -0.6686 O.3          1    LIG   0.0000
   4 C4          -3.6029     4.5171    -1.1053 C.2          1    LIG   0.0000
   5 O5          -3.1413     5.1349    -2.0247 O.2          1    LIG   0.0000
   6 C6          -2.8288     3.4647    -0.4783 C.2          1    LIG   0.0000
   7 C7          -3.2383     2.6501     0.6008 C.2          1    LIG   0.0000
   8 N8          -2.2398     1.8393     0.8441 N.2          1    LIG   0.0000
   9 N9          -1.2406     2.0627     0.0249 N.pl3        1    LIG   0.0000
  10 C10         -0.0164     1.3781     0.0095 C.ar         1    LIG   0.0000
  11 C11          1.1713     2.1017     0.0040 C.ar         1    LIG   0.0000
  12 C12          2.3819     1.4172    -0.0109 C.ar         1    LIG   0.0000
  13 C13          2.3938     0.0256    -0.0213 C.ar         1    LIG   0.0000
  14 C14          3.6615    -0.6793    -0.0364 C.2          1    LIG   0.0000
  15 O15          4.6577    -0.1148    -0.3954 O.2          1    LIG   0.0000
  16 N16          3.7214    -1.9896     0.3593 N.am         1    LIG   0.0000
  17 C17          4.9452    -2.6701     0.3448 C.ar         1    LIG   0.0000
  18 C18          5.0805    -3.8070    -0.4448 C.ar         1    LIG   0.0000
  19 C19          6.2936    -4.4876    -0.4643 C.ar         1    LIG   0.0000
  20 C20          7.3593    -4.0308     0.3027 C.ar         1    LIG   0.0000
  21 C21          8.6223    -4.7430     0.2811 C.2          1    LIG   0.0000
  22 O22          8.6693    -5.8917     0.6250 O.2          1    LIG   0.0000
  23 N23          9.7849    -4.0914    -0.1402 N.am         1    LIG   0.0000
  24 C24         11.0452    -4.8511    -0.1466 C.3          1    LIG   0.0000
  25 C25         11.9748    -4.4001    -1.2651 C.3          1    LIG   0.0000
  26 C26         12.0858    -2.8848    -1.3555 C.3          1    LIG   0.0000
  27 C27         12.9693    -2.5516    -2.5473 C.3          1    LIG   0.0000
  28 C28         10.6935    -2.3444    -1.6530 C.3          1    LIG   0.0000
  29 C29          9.6894    -2.6836    -0.5606 C.3          1    LIG   0.0000
  30 C30          7.2284    -2.8942     1.0937 C.ar         1    LIG   0.0000
  31 C31          6.0140    -2.2158     1.1107 C.ar         1    LIG   0.0000
  32 C32          5.8738    -0.9747     1.9767 C.3          1    LIG   0.0000
  33 C33          1.2008    -0.6892    -0.0164 C.ar         1    LIG   0.0000
  34 C34         -0.0146    -0.0125    -0.0002 C.ar         1    LIG   0.0000
  35 C35         -1.5790     3.0717    -0.8221 C.2          1    LIG   0.0000
  36 C36         -0.7176     3.6472    -1.9325 C.3          1    LIG   0.0000
  37 H           -7.3274     6.7843    -1.2187 H            1    LIG   0.0000
  38 H           -7.3840     5.2023    -0.8175 H            1    LIG   0.0000
  39 H           -6.7550     6.2879     0.2279 H            1    LIG   0.0000
  40 H           -5.5777     5.6002    -2.3173 H            1    LIG   0.0000
  41 H           -4.9488     6.6857    -1.2720 H            1    LIG   0.0000
  42 H           -4.1143     2.6857     1.0818 H            1    LIG   0.0000
  43 H            1.1551     3.1015     0.0106 H            1    LIG   0.0000
  44 H            3.2435     1.9248    -0.0142 H            1    LIG   0.0000
  45 H            2.8912    -2.4600     0.6585 H            1    LIG   0.0000
  46 H            4.3113    -4.1328    -0.9945 H            1    LIG   0.0000
  47 H            6.3990    -5.3055    -1.0300 H            1    LIG   0.0000
  48 H           10.8372    -5.8213    -0.2707 H            1    LIG   0.0000
  49 H           11.5068    -4.7187     0.7305 H            1    LIG   0.0000
  50 H           12.8851    -4.7788    -1.0978 H            1    LIG   0.0000
  51 H           11.6235    -4.7483    -2.1341 H            1    LIG   0.0000
  52 H           12.4535    -2.4963    -0.5106 H            1    LIG   0.0000
  53 H           13.0584    -1.5590    -2.6290 H            1    LIG   0.0000
  54 H           13.8736    -2.9578    -2.4158 H            1    LIG   0.0000
  55 H           12.5569    -2.9190    -3.3810 H            1    LIG   0.0000
  56 H           10.3744    -2.7382    -2.5150 H            1    LIG   0.0000
  57 H           10.7478    -1.3498    -1.7407 H            1    LIG   0.0000
  58 H            9.8636    -2.0979     0.2310 H            1    LIG   0.0000
  59 H            8.7667    -2.5118    -0.9058 H            1    LIG   0.0000
  60 H            7.9977    -2.5688     1.6435 H            1    LIG   0.0000
  61 H            6.7363    -0.8005     2.4518 H            1    LIG   0.0000
  62 H            5.6463    -0.1899     1.4002 H            1    LIG   0.0000
  63 H            5.1464    -1.1171     2.6480 H            1    LIG   0.0000
  64 H            1.2167    -1.6890    -0.0244 H            1    LIG   0.0000
  65 H           -0.8764    -0.5199     0.0045 H            1    LIG   0.0000
  66 H           -1.2168     4.3793    -2.3961 H            1    LIG   0.0000
  67 H            0.1269     4.0146    -1.5428 H            1    LIG   0.0000
  68 H           -0.4958     2.9269    -2.5896 H            1    LIG   0.0000
@<TRIPOS>BOND
   1        1        2 1
   2        2        3 1
   3        3        4 1
   4        4        5 2
   5        4        6 1
   6        6        7 1
   7        7        8 2
   8        8        9 1
   9        9       10 1
  10       10       11 ar
  11       11       12 ar
  12       12       13 ar
  13       13       14 1
  14       14       15 2
  15       14       16 am
  16       16       17 1
  17       17       18 ar
  18       18       19 ar
  19       19       20 ar
  20       20       21 1
  21       21       22 2
  22       21       23 am
  23       23       24 1
  24       24       25 1
  25       25       26 1
  26       26       27 1
  27       26       28 1
  28       28       29 1
  29       29       23 1
  30       20       30 ar
  31       30       31 ar
  32       31       17 ar
  33       31       32 1
  34       13       33 ar
  35       33       34 ar
  36       34       10 ar
  37        9       35 1
  38       35        6 2
  39       35       36 1
  40        1       37 1
  41        1       38 1
  42        1       39 1
  43        2       40 1
  44        2       41 1
  45        7       42 1
  46       11       43 1
  47       12       44 1
  48       16       45 1
  49       18       46 1
  50       19       47 1
  51       24       48 1
  52       24       49 1
  53       25       50 1
  54       25       51 1
  55       26       52 1
  56       27       53 1
  57       27       54 1
  58       27       55 1
  59       28       56 1
  60       28       57 1
  61       29       58 1
  62       29       59 1
  63       30       60 1
  64       32       61 1
  65       32       62 1
  66       32       63 1
  67       33       64 1
  68       34       65 1
  69       36       66 1
  70       36       67 1
  71       36       68 1

@<TRIPOS>MOLECULE

  68   71
SMALL
USER_CHARGES
@<TRIPOS>ATOM
   1 C1          -3.1495     6.8500     3.9391 C.3          1    LIG   0.0000
   2 C2          -3.8916     6.1619     2.8049 C.3          1    LIG   0.0000
   3 O3          -3.0598     5.1637     2.2319 O.3          1    LIG   0.0000
   4 C4          -3.5866     4.4934     1.2373 C.2          1    LIG   0.0000
   5 O5          -4.7016     4.7421     0.8700 O.2          1    LIG   0.0000
   6 C6          -2.8228     3.4516     0.5807 C.2          1    LIG   0.0000
   7 C7          -3.2502     2.6538    -0.5040 C.2          1    LIG   0.0000
   8 N8          -2.2541     1.8504    -0.7796 N.2          1    LIG   0.0000
   9 N9          -1.2406     2.0627     0.0249 N.pl3        1    LIG   0.0000
  10 C10         -0.0164     1.3781     0.0095 C.ar         1    LIG   0.0000
  11 C11          1.1713     2.1017     0.0040 C.ar         1    LIG   0.0000
  12 C12          2.3819     1.4172    -0.0109 C.ar         1    LIG   0.0000
  13 C13          2.3938     0.0256    -0.0213 C.ar         1    LIG   0.0000
  14 C14          3.6615    -0.6793    -0.0364 C.2          1    LIG   0.0000
  15 O15          4.6577    -0.1148    -0.3954 O.2          1    LIG   0.0000
  16 N16          3.7214    -1.9896     0.3593 N.am         1    LIG   0.0000
  17 C17          4.9452    -2.6701     0.3448 C.ar         1    LIG   0.0000
  18 C18          5.4454    -3.1929     1.5325 C.ar         1    LIG   0.0000
  19 C19          6.6604    -3.8705     1.5252 C.ar         1    LIG   0.0000
  20 C20          7.3657    -4.0202     0.3366 C.ar         1    LIG   0.0000
  21 C21          8.6323    -4.7260     0.3322 C.2          1    LIG   0.0000
  22 O22          9.5448    -4.3253     1.0006 O.2          1    LIG   0.0000
  23 N23          8.7904    -5.8732    -0.4504 N.am         1    LIG   0.0000
  24 C24         10.0922    -6.5590    -0.4256 C.3          1    LIG   0.0000
  25 C25          9.9455    -8.0635    -0.6083 C.3          1    LIG   0.0000
  26 C26          9.0014    -8.4231    -1.7467 C.3          1    LIG   0.0000
  27 C27          8.8712    -9.9376    -1.7844 C.3          1    LIG   0.0000
  28 C28          7.6323    -7.8549    -1.3980 C.3          1    LIG   0.0000
  29 C29          7.6480    -6.3398    -1.2536 C.3          1    LIG   0.0000
  30 C30          6.8690    -3.4989    -0.8535 C.ar         1    LIG   0.0000
  31 C31          5.6536    -2.8222    -0.8428 C.ar         1    LIG   0.0000
  32 C32          5.1141    -2.2530    -2.1446 C.3          1    LIG   0.0000
  33 C33          1.2008    -0.6892    -0.0164 C.ar         1    LIG   0.0000
  34 C34         -0.0146    -0.0125    -0.0002 C.ar         1    LIG   0.0000
  35 C35         -1.5611     3.0650     0.8867 C.2          1    LIG   0.0000
  36 C36         -0.6760     3.6334     1.9819 C.3          1    LIG   0.0000
  37 H           -3.7353     7.5529     4.3425 H            1    LIG   0.0000
  38 H           -2.9086     6.1758     4.6372 H            1    LIG   0.0000
  39 H           -2.3166     7.2740     3.5836 H            1    LIG   0.0000
  40 H           -4.7246     5.7379     3.1604 H            1    LIG   0.0000
  41 H           -4.1325     6.8360     2.1068 H            1    LIG   0.0000
  42 H           -4.1352     2.6946    -0.9678 H            1    LIG   0.0000
  43 H            1.1551     3.1015     0.0106 H            1    LIG   0.0000
  44 H            3.2435     1.9248    -0.0142 H            1    LIG   0.0000
  45 H            2.8912    -2.4600     0.6585 H            1    LIG   0.0000
  46 H            4.9354    -3.0825     2.3856 H            1    LIG   0.0000
  47 H            7.0264    -4.2499     2.3750 H            1    LIG   0.0000
  48 H           10.5341    -6.3818     0.4538 H            1    LIG   0.0000
  49 H           10.6619    -6.1977    -1.1637 H            1    LIG   0.0000
  50 H           10.8460    -8.4521    -0.8036 H            1    LIG   0.0000
  51 H            9.5897    -8.4564     0.2396 H            1    LIG   0.0000
  52 H            9.3320    -8.0649    -2.6198 H            1    LIG   0.0000
  53 H            8.2542   -10.2008    -2.5261 H            1    LIG   0.0000
  54 H            9.7709   -10.3459    -1.9387 H            1    LIG   0.0000
  55 H            8.5027   -10.2623    -0.9133 H            1    LIG   0.0000
  56 H            7.3296    -8.2561    -0.5334 H            1    LIG   0.0000
  57 H            6.9891    -8.1011    -2.1230 H            1    LIG   0.0000
  58 H            7.7045    -5.9295    -2.1638 H            1    LIG   0.0000
  59 H            6.8008    -6.0492    -0.8090 H            1    LIG   0.0000
  60 H            7.3793    -3.6093    -1.7064 H            1    LIG   0.0000
  61 H            5.7519    -2.4570    -2.8873 H            1    LIG   0.0000
  62 H            4.2254    -2.6652    -2.3457 H            1    LIG   0.0000
  63 H            5.0098    -1.2622    -2.0575 H            1    LIG   0.0000
  64 H            1.2167    -1.6890    -0.0244 H            1    LIG   0.0000
  65 H           -0.8764    -0.5199     0.0045 H            1    LIG   0.0000
  66 H           -1.1655     4.3614     2.4618 H            1    LIG   0.0000
  67 H           -0.4390     2.9085     2.6287 H            1    LIG   0.0000
  68 H            0.1593     4.0045     1.5764 H            1    LIG   0.0000
@<TRIPOS>BOND
   1        1        2 1
   2        2        3 1
   3        3        4 1
   4        4        5 2
   5        4        6 1
   6        6        7 1
   7        7        8 2
   8        8        9 1
   9        9       10 1
  10       10       11 ar
  11       11       12 ar
  12       12       13 ar
  13       13       14 1
  14       14       15 2
  15       14       16 am
  16       16       17 1
  17       17       18 ar
  18       18       19 ar
  19       19       20 ar
  20       20       21 1
  21       21       22 2
  22       21       23 am
  23       23       24 1
  24       24       25 1
  25       25       26 1
  26       26       27 1
  27       26       28 1
  28       28       29 1
  29       29       23 1
  30       20       30 ar
  31       30       31 ar
  32       31       17 ar
  33       31       32 1
  34       13       33 ar
  35       33       34 ar
  36       34       10 ar
  37        9       35 1
  38       35        6 2
  39       35       36 1
  40        1       37 1
  41        1       38 1
  42        1       39 1
  43        2       40 1
  44        2       41 1
  45        7       42 1
  46       11       43 1
  47       12       44 1
  48       16       45 1
  49       18       46 1
  50       19       47 1
  51       24       48 1
  52       24       49 1
  53       25       50 1
  54       25       51 1
  55       26       52 1
  56       27       53 1
  57       27       54 1
  58       27       55 1
  59       28       56 1
  60       28       57 1
  61       29       58 1
  62       29       59 1
  63       30       60 1
  64       32       61 1
  65       32       62 1
  66       32       63 1
  67       33       64 1
  68       34       65 1
  69       36       66 1
  70       36       67 1
  71       36       68 1

@<TRIPOS>MOLECULE

  68   71
SMALL
USER_CHARGES
@<TRIPOS>ATOM
   1 C1          -7.3051     1.0550    -1.2835 C.3          1    LIG   0.0000
   2 C2          -6.3839     1.8181    -2.2213 C.3          1    LIG   0.0000
   3 O3          -5.0442     1.7052    -1.7645 O.3          1    LIG   0.0000
   4 C4          -4.6531     2.6349    -0.9285 C.2          1    LIG   0.0000
   5 O5          -5.4124     3.5041    -0.5998 O.2          1    LIG   0.0000
   6 C6          -3.3037     2.6137    -0.4009 C.2          1    LIG   0.0000
   7 C7          -2.7434     3.5372     0.5096 C.2          1    LIG   0.0000
   8 N8          -1.5122     3.1435     0.7160 N.2          1    LIG   0.0000
   9 N9          -1.2406     2.0627     0.0249 N.pl3        1    LIG   0.0000
  10 C10         -0.0164     1.3781     0.0095 C.ar         1    LIG   0.0000
  11 C11          1.1713     2.1017     0.0040 C.ar         1    LIG   0.0000
  12 C12          2.3819     1.4172    -0.0109 C.ar         1    LIG   0.0000
  13 C13          2.3938     0.0256    -0.0213 C.ar         1    LIG   0.0000
  14 C14          3.6615    -0.6793    -0.0364 C.2          1    LIG   0.0000
  15 O15          4.6632    -0.1201     0.3155 O.2          1    LIG   0.0000
  16 N16          3.7151    -1.9836    -0.4522 N.am         1    LIG   0.0000
  17 C17          4.9390    -2.6641    -0.4667 C.ar         1    LIG   0.0000
  18 C18          5.6440    -2.8185     0.7220 C.ar         1    LIG   0.0000
  19 C19          6.8602    -3.4939     0.7149 C.ar         1    LIG   0.0000
  20 C20          7.3629    -4.0078    -0.4750 C.ar         1    LIG   0.0000
  21 C21          8.6314    -4.7104    -0.4795 C.2          1    LIG   0.0000
  22 O22          9.3271    -4.6864    -1.4569 O.2          1    LIG   0.0000
  23 N23          9.0461    -5.4198     0.6613 N.am         1    LIG   0.0000
  24 C24          8.2344    -5.4829     1.8852 C.3          1    LIG   0.0000
  25 C25          8.5113    -6.8206     2.5541 C.3          1    LIG   0.0000
  26 C26          9.9433    -6.9025     3.0597 C.3          1    LIG   0.0000
  27 C27         10.3675    -8.3632     3.0756 C.3          1    LIG   0.0000
  28 C28         10.8179    -6.0694     2.1376 C.3          1    LIG   0.0000
  29 C29         10.3268    -6.1411     0.6985 C.3          1    LIG   0.0000
  30 C30          6.6610    -3.8557    -1.6661 C.ar         1    LIG   0.0000
  31 C31          5.4450    -3.1801    -1.6554 C.ar         1    LIG   0.0000
  32 C32          4.6808    -3.0148    -2.9588 C.3          1    LIG   0.0000
  33 C33          1.2008    -0.6892    -0.0164 C.ar         1    LIG   0.0000
  34 C34         -0.0146    -0.0125    -0.0002 C.ar         1    LIG   0.0000
  35 C35         -2.3445     1.6996    -0.6820 C.2          1    LIG   0.0000
  36 C36         -2.4711     0.5043    -1.6100 C.3          1    LIG   0.0000
  37 H           -8.2485     1.1345    -1.6052 H            1    LIG   0.0000
  38 H           -7.0389     0.0912    -1.2661 H            1    LIG   0.0000
  39 H           -7.2337     1.4371    -0.3622 H            1    LIG   0.0000
  40 H           -6.4553     1.4359    -3.1427 H            1    LIG   0.0000
  41 H           -6.6501     2.7819    -2.2387 H            1    LIG   0.0000
  42 H           -3.1961     4.3315     0.9147 H            1    LIG   0.0000
  43 H            1.1551     3.1015     0.0106 H            1    LIG   0.0000
  44 H            3.2435     1.9248    -0.0142 H            1    LIG   0.0000
  45 H            2.8804    -2.4496    -0.7454 H            1    LIG   0.0000
  46 H            5.2794    -2.4466     1.5757 H            1    LIG   0.0000
  47 H            7.3728    -3.6096     1.5657 H            1    LIG   0.0000
  48 H            7.2640    -5.4116     1.6545 H            1    LIG   0.0000
  49 H            8.4865    -4.7357     2.5002 H            1    LIG   0.0000
  50 H            7.8865    -6.9336     3.3267 H            1    LIG   0.0000
  51 H            8.3578    -7.5537     1.8914 H            1    LIG   0.0000
  52 H            9.9904    -6.5322     3.9874 H            1    LIG   0.0000
  53 H           11.3085    -8.4334     3.4064 H            1    LIG   0.0000
  54 H            9.7619    -8.8795     3.6812 H            1    LIG   0.0000
  55 H           10.3108    -8.7368     2.1498 H            1    LIG   0.0000
  56 H           11.7560    -6.4132     2.1794 H            1    LIG   0.0000
  57 H           10.7980    -5.1170     2.4418 H            1    LIG   0.0000
  58 H           10.9866    -5.7063     0.0856 H            1    LIG   0.0000
  59 H           10.1953    -7.0939     0.4248 H            1    LIG   0.0000
  60 H            7.0259    -4.2274    -2.5197 H            1    LIG   0.0000
  61 H            5.1924    -3.4456    -3.7021 H            1    LIG   0.0000
  62 H            3.7835    -3.4486    -2.8765 H            1    LIG   0.0000
  63 H            4.5636    -2.0413    -3.1553 H            1    LIG   0.0000
  64 H            1.2167    -1.6890    -0.0244 H            1    LIG   0.0000
  65 H           -0.8764    -0.5199     0.0045 H            1    LIG   0.0000
  66 H           -3.3930     0.4786    -1.9966 H            1    LIG   0.0000
  67 H           -1.8019     0.5835    -2.3488 H            1    LIG   0.0000
  68 H           -2.3018    -0.3364    -1.0956 H            1    LIG   0.0000
@<TRIPOS>BOND
   1        1        2 1
   2        2        3 1
   3        3        4 1
   4        4        5 2
   5        4        6 1
   6        6        7 1
   7        7        8 2
   8        8        9 1
   9        9       10 1
  10       10       11 ar
  11       11       12 ar
  12       12       13 ar
  13       13       14 1
  14       14       15 2
  15       14       16 am
  16       16       17 1
  17       17       18 ar
  18       18       19 ar
  19       19       20 ar
  20       20       21 1
  21       21       22 2
  22       21       23 am
  23       23       24 1
  24       24       25 1
  25       25       26 1
  26       26       27 1
  27       26       28 1
  28       28       29 1
  29       29       23 1
  30       20       30 ar
  31       30       31 ar
  32       31       17 ar
  33       31       32 1
  34       13       33 ar
  35       33       34 ar
  36       34       10 ar
  37        9       35 1
  38       35        6 2
  39       35       36 1
  40        1       37 1
  41        1       38 1
  42        1       39 1
  43        2       40 1
  44        2       41 1
  45        7       42 1
  46       11       43 1
  47       12       44 1
  48       16       45 1
  49       18       46 1
  50       19       47 1
  51       24       48 1
  52       24       49 1
  53       25       50 1
  54       25       51 1
  55       26       52 1
  56       27       53 1
  57       27       54 1
  58       27       55 1
  59       28       56 1
  60       28       57 1
  61       29       58 1
  62       29       59 1
  63       30       60 1
  64       32       61 1
  65       32       62 1
  66       32       63 1
  67       33       64 1
  68       34       65 1
  69       36       66 1
  70       36       67 1
  71       36       68 1

@<TRIPOS>MOLECULE

  68   71
SMALL
USER_CHARGES
@<TRIPOS>ATOM
   1 C1          -6.8573     6.0020     0.9719 C.3          1    LIG   0.0000
   2 C2          -5.4643     5.8022     1.5463 C.3          1    LIG   0.0000
   3 O3          -4.8038     4.7648     0.8363 O.3          1    LIG   0.0000
   4 C4          -3.5866     4.4934     1.2373 C.2          1    LIG   0.0000
   5 O5          -3.1040     5.1074     2.1484 O.2          1    LIG   0.0000
   6 C6          -2.8228     3.4516     0.5807 C.2          1    LIG   0.0000
   7 C7          -3.2502     2.6538    -0.5040 C.2          1    LIG   0.0000
   8 N8          -2.2541     1.8504    -0.7796 N.2          1    LIG   0.0000
   9 N9          -1.2406     2.0627     0.0249 N.pl3        1    LIG   0.0000
  10 C10         -0.0164     1.3781     0.0095 C.ar         1    LIG   0.0000
  11 C11          1.1713     2.1017     0.0040 C.ar         1    LIG   0.0000
  12 C12          2.3819     1.4172    -0.0109 C.ar         1    LIG   0.0000
  13 C13          2.3938     0.0256    -0.0213 C.ar         1    LIG   0.0000
  14 C14          3.6615    -0.6793    -0.0364 C.2          1    LIG   0.0000
  15 O15          4.6632    -0.1201     0.3155 O.2          1    LIG   0.0000
  16 N16          3.7151    -1.9836    -0.4522 N.am         1    LIG   0.0000
  17 C17          4.9390    -2.6641    -0.4667 C.ar         1    LIG   0.0000
  18 C18          5.4204    -3.1695    -1.6696 C.ar         1    LIG   0.0000
  19 C19          6.6357    -3.8462    -1.6914 C.ar         1    LIG   0.0000
  20 C20          7.3590    -4.0140    -0.5160 C.ar         1    LIG   0.0000
  21 C21          8.6249    -4.7207    -0.5415 C.2          1    LIG   0.0000
  22 O22          9.5274    -4.3107    -1.2179 O.2          1    LIG   0.0000
  23 N23          8.7939    -5.8794     0.2216 N.am         1    LIG   0.0000
  24 C24          7.6617    -6.3475     1.0367 C.3          1    LIG   0.0000
  25 C25          7.6368    -7.8653     1.1564 C.3          1    LIG   0.0000
  26 C26          9.0048    -8.4468     1.4829 C.3          1    LIG   0.0000
  27 C27          8.8763    -9.9619     1.4994 C.3          1    LIG   0.0000
  28 C28          9.9394    -8.0795     0.3382 C.3          1    LIG   0.0000
  29 C29         10.0907    -6.5747     0.1672 C.3          1    LIG   0.0000
  30 C30          6.8811    -3.5101     0.6892 C.ar         1    LIG   0.0000
  31 C31          5.6657    -2.8336     0.7073 C.ar         1    LIG   0.0000
  32 C32          5.1458    -2.2849     2.0259 C.3          1    LIG   0.0000
  33 C33          1.2008    -0.6892    -0.0164 C.ar         1    LIG   0.0000
  34 C34         -0.0146    -0.0125    -0.0002 C.ar         1    LIG   0.0000
  35 C35         -1.5611     3.0650     0.8867 C.2          1    LIG   0.0000
  36 C36         -0.6760     3.6334     1.9819 C.3          1    LIG   0.0000
  37 H           -7.3224     6.7325     1.4719 H            1    LIG   0.0000
  38 H           -6.7869     6.2515     0.0061 H            1    LIG   0.0000
  39 H           -7.3789     5.1534     1.0597 H            1    LIG   0.0000
  40 H           -4.9426     6.6508     1.4585 H            1    LIG   0.0000
  41 H           -5.5346     5.5526     2.5121 H            1    LIG   0.0000
  42 H           -4.1352     2.6946    -0.9678 H            1    LIG   0.0000
  43 H            1.1551     3.1015     0.0106 H            1    LIG   0.0000
  44 H            3.2435     1.9248    -0.0142 H            1    LIG   0.0000
  45 H            2.8804    -2.4496    -0.7454 H            1    LIG   0.0000
  46 H            4.8968    -3.0474    -2.5128 H            1    LIG   0.0000
  47 H            6.9890    -4.2120    -2.5524 H            1    LIG   0.0000
  48 H            6.8095    -6.0428     0.6114 H            1    LIG   0.0000
  49 H            7.7373    -5.9523     1.9522 H            1    LIG   0.0000
  50 H            6.9986    -8.1191     1.8833 H            1    LIG   0.0000
  51 H            7.3235    -8.2503     0.2883 H            1    LIG   0.0000
  52 H            9.3473    -8.1016     2.3567 H            1    LIG   0.0000
  53 H            9.7643   -10.3694     1.7122 H            1    LIG   0.0000
  54 H            8.2102   -10.2324     2.1945 H            1    LIG   0.0000
  55 H            8.5698   -10.2802     0.6023 H            1    LIG   0.0000
  56 H            9.5737    -8.4632    -0.5098 H            1    LIG   0.0000
  57 H           10.8402    -8.4734     0.5210 H            1    LIG   0.0000
  58 H           10.6757    -6.2241     0.8985 H            1    LIG   0.0000
  59 H           10.5180    -6.3919    -0.7182 H            1    LIG   0.0000
  60 H            7.4048    -3.6325     1.5322 H            1    LIG   0.0000
  61 H            5.7951    -2.4996     2.7555 H            1    LIG   0.0000
  62 H            5.0395    -1.2931     1.9555 H            1    LIG   0.0000
  63 H            4.2607    -2.7011     2.2343 H            1    LIG   0.0000
  64 H            1.2167    -1.6890    -0.0244 H            1    LIG   0.0000
  65 H           -0.8764    -0.5199     0.0045 H            1    LIG   0.0000
  66 H           -1.1655     4.3614     2.4618 H            1    LIG   0.0000
  67 H           -0.4390     2.9085     2.6287 H            1    LIG   0.0000
  68 H            0.1593     4.0045     1.5764 H            1    LIG   0.0000
@<TRIPOS>BOND
   1        1        2 1
   2        2        3 1
   3        3        4 1
   4        4        5 2
   5        4        6 1
   6        6        7 1
   7        7        8 2
   8        8        9 1
   9        9       10 1
  10       10       11 ar
  11       11       12 ar
  12       12       13 ar
  13       13       14 1
  14       14       15 2
  15       14       16 am
  16       16       17 1
  17       17       18 ar
  18       18       19 ar
  19       19       20 ar
  20       20       21 1
  21       21       22 2
  22       21       23 am
  23       23       24 1
  24       24       25 1
  25       25       26 1
  26       26       27 1
  27       26       28 1
  28       28       29 1
  29       29       23 1
  30       20       30 ar
  31       30       31 ar
  32       31       17 ar
  33       31       32 1
  34       13       33 ar
  35       33       34 ar
  36       34       10 ar
  37        9       35 1
  38       35        6 2
  39       35       36 1
  40        1       37 1
  41        1       38 1
  42        1       39 1
  43        2       40 1
  44        2       41 1
  45        7       42 1
  46       11       43 1
  47       12       44 1
  48       16       45 1
  49       18       46 1
  50       19       47 1
  51       24       48 1
  52       24       49 1
  53       25       50 1
  54       25       51 1
  55       26       52 1
  56       27       53 1
  57       27       54 1
  58       27       55 1
  59       28       56 1
  60       28       57 1
  61       29       58 1
  62       29       59 1
  63       30       60 1
  64       32       61 1
  65       32       62 1
  66       32       63 1
  67       33       64 1
  68       34       65 1
  69       36       66 1
  70       36       67 1
  71       36       68 1

@<TRIPOS>MOLECULE

  68   71
SMALL
USER_CHARGES
@<TRIPOS>ATOM
   1 C1          -6.2195     5.2085     2.7243 C.3          1    LIG   0.0000
   2 C2          -5.4643     5.8022     1.5463 C.3          1    LIG   0.0000
   3 O3          -4.8038     4.7648     0.8363 O.3          1    LIG   0.0000
   4 C4          -3.5866     4.4934     1.2373 C.2          1    LIG   0.0000
   5 O5          -3.1040     5.1074     2.1484 O.2          1    LIG   0.0000
   6 C6          -2.8228     3.4516     0.5807 C.2          1    LIG   0.0000
   7 C7          -3.2502     2.6538    -0.5040 C.2          1    LIG   0.0000
   8 N8          -2.2541     1.8504    -0.7796 N.2          1    LIG   0.0000
   9 N9          -1.2406     2.0627     0.0249 N.pl3        1    LIG   0.0000
  10 C10         -0.0164     1.3781     0.0095 C.ar         1    LIG   0.0000
  11 C11          1.1713     2.1017     0.0040 C.ar         1    LIG   0.0000
  12 C12          2.3819     1.4172    -0.0109 C.ar         1    LIG   0.0000
  13 C13          2.3938     0.0256    -0.0213 C.ar         1    LIG   0.0000
  14 C14          3.6615    -0.6793    -0.0364 C.2          1    LIG   0.0000
  15 O15          3.7140    -1.8270     0.3102 O.2          1    LIG   0.0000
  16 N16          4.7988    -0.0348    -0.4462 N.am         1    LIG   0.0000
  17 C17          6.0227    -0.7154    -0.4608 C.ar         1    LIG   0.0000
  18 C18          7.0739    -0.2383     0.3147 C.ar         1    LIG   0.0000
  19 C19          8.2923    -0.9097     0.3054 C.ar         1    LIG   0.0000
  20 C20          8.4525    -2.0483    -0.4761 C.ar         1    LIG   0.0000
  21 C21          9.7240    -2.7455    -0.4847 C.2          1    LIG   0.0000
  22 O22          9.7573    -3.9304    -0.6715 O.2          1    LIG   0.0000
  23 N23         10.9184    -2.0327    -0.2739 N.am         1    LIG   0.0000
  24 C24         10.9313    -0.5819    -0.0408 C.3          1    LIG   0.0000
  25 C25         12.2369    -0.0548    -0.6147 C.3          1    LIG   0.0000
  26 C26         13.4245    -0.5341     0.2047 C.3          1    LIG   0.0000
  27 C27         13.6603     0.3543     1.4162 C.3          1    LIG   0.0000
  28 C28         13.1115    -1.9332     0.7072 C.3          1    LIG   0.0000
  29 C29         12.2307    -2.6961    -0.2713 C.3          1    LIG   0.0000
  30 C30          7.4037    -2.5288    -1.2532 C.ar         1    LIG   0.0000
  31 C31          6.1866    -1.8552    -1.2412 C.ar         1    LIG   0.0000
  32 C32          5.0428    -2.3822    -2.0921 C.3          1    LIG   0.0000
  33 C33          1.2008    -0.6892    -0.0164 C.ar         1    LIG   0.0000
  34 C34         -0.0146    -0.0125    -0.0002 C.ar         1    LIG   0.0000
  35 C35         -1.5611     3.0650     0.8867 C.2          1    LIG   0.0000
  36 C36         -0.6760     3.6334     1.9819 C.3          1    LIG   0.0000
  37 H           -6.6846     5.9390     3.2243 H            1    LIG   0.0000
  38 H           -6.8947     4.5510     2.3902 H            1    LIG   0.0000
  39 H           -5.5760     4.7451     3.3335 H            1    LIG   0.0000
  40 H           -6.1078     6.2656     0.9372 H            1    LIG   0.0000
  41 H           -4.7890     6.4597     1.8805 H            1    LIG   0.0000
  42 H           -4.1352     2.6946    -0.9678 H            1    LIG   0.0000
  43 H            1.1551     3.1015     0.0106 H            1    LIG   0.0000
  44 H            3.2435     1.9248    -0.0142 H            1    LIG   0.0000
  45 H            4.7551     0.9215    -0.7350 H            1    LIG   0.0000
  46 H            6.9549     0.5814     0.8750 H            1    LIG   0.0000
  47 H            9.0528    -0.5734     0.8608 H            1    LIG   0.0000
  48 H           10.8844    -0.3905     0.9396 H            1    LIG   0.0000
  49 H           10.1547    -0.1524    -0.5017 H            1    LIG   0.0000
  50 H           12.3358    -0.3801    -1.5551 H            1    LIG   0.0000
  51 H           12.2172     0.9449    -0.6081 H            1    LIG   0.0000
  52 H           14.2451    -0.5542    -0.3665 H            1    LIG   0.0000
  53 H           14.4459     0.0127     1.9322 H            1    LIG   0.0000
  54 H           13.8417     1.2898     1.1133 H            1    LIG   0.0000
  55 H           12.8483     0.3444     1.9999 H            1    LIG   0.0000
  56 H           12.6372    -1.8642     1.5849 H            1    LIG   0.0000
  57 H           13.9687    -2.4332     0.8300 H            1    LIG   0.0000
  58 H           12.6312    -2.6691    -1.1872 H            1    LIG   0.0000
  59 H           12.1344    -3.6471     0.0225 H            1    LIG   0.0000
  60 H            7.5231    -3.3485    -1.8135 H            1    LIG   0.0000
  61 H            5.3412    -3.2020    -2.5809 H            1    LIG   0.0000
  62 H            4.2667    -2.6090    -1.5037 H            1    LIG   0.0000
  63 H            4.7679    -1.6825    -2.7515 H            1    LIG   0.0000
  64 H            1.2167    -1.6890    -0.0244 H            1    LIG   0.0000
  65 H           -0.8764    -0.5199     0.0045 H            1    LIG   0.0000
  66 H           -1.1655     4.3614     2.4618 H            1    LIG   0.0000
  67 H           -0.4390     2.9085     2.6287 H            1    LIG   0.0000
  68 H            0.1593     4.0045     1.5764 H            1    LIG   0.0000
@<TRIPOS>BOND
   1        1        2 1
   2        2        3 1
   3        3        4 1
   4        4        5 2
   5        4        6 1
   6        6        7 1
   7        7        8 2
   8        8        9 1
   9        9       10 1
  10       10       11 ar
  11       11       12 ar
  12       12       13 ar
  13       13       14 1
  14       14       15 2
  15       14       16 am
  16       16       17 1
  17       17       18 ar
  18       18       19 ar
  19       19       20 ar
  20       20       21 1
  21       21       22 2
  22       21       23 am
  23       23       24 1
  24       24       25 1
  25       25       26 1
  26       26       27 1
  27       26       28 1
  28       28       29 1
  29       29       23 1
  30       20       30 ar
  31       30       31 ar
  32       31       17 ar
  33       31       32 1
  34       13       33 ar
  35       33       34 ar
  36       34       10 ar
  37        9       35 1
  38       35        6 2
  39       35       36 1
  40        1       37 1
  41        1       38 1
  42        1       39 1
  43        2       40 1
  44        2       41 1
  45        7       42 1
  46       11       43 1
  47       12       44 1
  48       16       45 1
  49       18       46 1
  50       19       47 1
  51       24       48 1
  52       24       49 1
  53       25       50 1
  54       25       51 1
  55       26       52 1
  56       27       53 1
  57       27       54 1
  58       27       55 1
  59       28       56 1
  60       28       57 1
  61       29       58 1
  62       29       59 1
  63       30       60 1
  64       32       61 1
  65       32       62 1
  66       32       63 1
  67       33       64 1
  68       34       65 1
  69       36       66 1
  70       36       67 1
  71       36       68 1

@<TRIPOS>MOLECULE

  68   71
SMALL
USER_CHARGES
@<TRIPOS>ATOM
   1 C1          -3.1495     6.8500     3.9391 C.3          1    LIG   0.0000
   2 C2          -3.8916     6.1619     2.8049 C.3          1    LIG   0.0000
   3 O3          -3.0598     5.1637     2.2319 O.3          1    LIG   0.0000
   4 C4          -3.5866     4.4934     1.2373 C.2          1    LIG   0.0000
   5 O5          -4.7016     4.7421     0.8700 O.2          1    LIG   0.0000
   6 C6          -2.8228     3.4516     0.5807 C.2          1    LIG   0.0000
   7 C7          -3.2502     2.6538    -0.5040 C.2          1    LIG   0.0000
   8 N8          -2.2541     1.8504    -0.7796 N.2          1    LIG   0.0000
   9 N9          -1.2406     2.0627     0.0249 N.pl3        1    LIG   0.0000
  10 C10         -0.0164     1.3781     0.0095 C.ar         1    LIG   0.0000
  11 C11          1.1713     2.1017     0.0040 C.ar         1    LIG   0.0000
  12 C12          2.3819     1.4172    -0.0109 C.ar         1    LIG   0.0000
  13 C13          2.3938     0.0256    -0.0213 C.ar         1    LIG   0.0000
  14 C14          3.6615    -0.6793    -0.0364 C.2          1    LIG   0.0000
  15 O15          3.7140    -1.8270     0.3102 O.2          1    LIG   0.0000
  16 N16          4.7988    -0.0348    -0.4462 N.am         1    LIG   0.0000
  17 C17          6.0227    -0.7154    -0.4608 C.ar         1    LIG   0.0000
  18 C18          6.7090    -0.8524    -1.6625 C.ar         1    LIG   0.0000
  19 C19          7.9255    -1.5269    -1.6841 C.ar         1    LIG   0.0000
  20 C20          8.4462    -2.0589    -0.5100 C.ar         1    LIG   0.0000
  21 C21          9.7139    -2.7624    -0.5357 C.2          1    LIG   0.0000
  22 O22         10.7073    -2.1956    -0.8991 O.2          1    LIG   0.0000
  23 N23          9.7787    -4.0958    -0.1387 N.am         1    LIG   0.0000
  24 C24         11.0961    -4.7448    -0.1907 C.3          1    LIG   0.0000
  25 C25         11.2499    -5.7623     0.9300 C.3          1    LIG   0.0000
  26 C26         10.1794    -5.5341     1.9859 C.3          1    LIG   0.0000
  27 C27         10.4196    -6.4046     3.2085 C.3          1    LIG   0.0000
  28 C28          8.8353    -5.8309     1.3399 C.3          1    LIG   0.0000
  29 C29          8.5403    -4.7480     0.3152 C.3          1    LIG   0.0000
  30 C30          7.7631    -1.9241     0.6941 C.ar         1    LIG   0.0000
  31 C31          6.5470    -1.2488     0.7122 C.ar         1    LIG   0.0000
  32 C32          5.8025    -1.1040     2.0293 C.3          1    LIG   0.0000
  33 C33          1.2008    -0.6892    -0.0164 C.ar         1    LIG   0.0000
  34 C34         -0.0146    -0.0125    -0.0002 C.ar         1    LIG   0.0000
  35 C35         -1.5611     3.0650     0.8867 C.2          1    LIG   0.0000
  36 C36         -0.6760     3.6334     1.9819 C.3          1    LIG   0.0000
  37 H           -3.7353     7.5529     4.3425 H            1    LIG   0.0000
  38 H           -2.9086     6.1758     4.6372 H            1    LIG   0.0000
  39 H           -2.3166     7.2740     3.5836 H            1    LIG   0.0000
  40 H           -4.7246     5.7379     3.1604 H            1    LIG   0.0000
  41 H           -4.1325     6.8360     2.1068 H            1    LIG   0.0000
  42 H           -4.1352     2.6946    -0.9678 H            1    LIG   0.0000
  43 H            1.1551     3.1015     0.0106 H            1    LIG   0.0000
  44 H            3.2435     1.9248    -0.0142 H            1    LIG   0.0000
  45 H            4.7551     0.9215    -0.7350 H            1    LIG   0.0000
  46 H            6.3307    -0.4689    -2.5051 H            1    LIG   0.0000
  47 H            8.4255    -1.6290    -2.5441 H            1    LIG   0.0000
  48 H           11.8074    -4.0478    -0.0990 H            1    LIG   0.0000
  49 H           11.1967    -5.2099    -1.0702 H            1    LIG   0.0000
  50 H           11.1553    -6.6848     0.5558 H            1    LIG   0.0000
  51 H           12.1534    -5.6627     1.3468 H            1    LIG   0.0000
  52 H           10.1992    -4.5738     2.2640 H            1    LIG   0.0000
  53 H            9.7029    -6.2347     3.8848 H            1    LIG   0.0000
  54 H           10.4032    -7.3679     2.9403 H            1    LIG   0.0000
  55 H           11.3109    -6.1841     3.6048 H            1    LIG   0.0000
  56 H            8.1199    -5.8376     2.0385 H            1    LIG   0.0000
  57 H            8.8683    -6.7224     0.8880 H            1    LIG   0.0000
  58 H            8.0807    -5.1597    -0.4717 H            1    LIG   0.0000
  59 H            7.9424    -4.0614     0.7288 H            1    LIG   0.0000
  60 H            8.1414    -2.3080     1.5364 H            1    LIG   0.0000
  61 H            6.3256    -1.5456     2.7582 H            1    LIG   0.0000
  62 H            5.6876    -0.1337     2.2423 H            1    LIG   0.0000
  63 H            4.9044    -1.5374     1.9540 H            1    LIG   0.0000
  64 H            1.2167    -1.6890    -0.0244 H            1    LIG   0.0000
  65 H           -0.8764    -0.5199     0.0045 H            1    LIG   0.0000
  66 H           -1.1655     4.3614     2.4618 H            1    LIG   0.0000
  67 H           -0.4390     2.9085     2.6287 H            1    LIG   0.0000
  68 H            0.1593     4.0045     1.5764 H            1    LIG   0.0000
@<TRIPOS>BOND
   1        1        2 1
   2        2        3 1
   3        3        4 1
   4        4        5 2
   5        4        6 1
   6        6        7 1
   7        7        8 2
   8        8        9 1
   9        9       10 1
  10       10       11 ar
  11       11       12 ar
  12       12       13 ar
  13       13       14 1
  14       14       15 2
  15       14       16 am
  16       16       17 1
  17       17       18 ar
  18       18       19 ar
  19       19       20 ar
  20       20       21 1
  21       21       22 2
  22       21       23 am
  23       23       24 1
  24       24       25 1
  25       25       26 1
  26       26       27 1
  27       26       28 1
  28       28       29 1
  29       29       23 1
  30       20       30 ar
  31       30       31 ar
  32       31       17 ar
  33       31       32 1
  34       13       33 ar
  35       33       34 ar
  36       34       10 ar
  37        9       35 1
  38       35        6 2
  39       35       36 1
  40        1       37 1
  41        1       38 1
  42        1       39 1
  43        2       40 1
  44        2       41 1
  45        7       42 1
  46       11       43 1
  47       12       44 1
  48       16       45 1
  49       18       46 1
  50       19       47 1
  51       24       48 1
  52       24       49 1
  53       25       50 1
  54       25       51 1
  55       26       52 1
  56       27       53 1
  57       27       54 1
  58       27       55 1
  59       28       56 1
  60       28       57 1
  61       29       58 1
  62       29       59 1
  63       30       60 1
  64       32       61 1
  65       32       62 1
  66       32       63 1
  67       33       64 1
  68       34       65 1
  69       36       66 1
  70       36       67 1
  71       36       68 1

@<TRIPOS>MOLECULE

  68   71
SMALL
USER_CHARGES
@<TRIPOS>ATOM
   1 C1          -5.1668     7.1679    -0.6784 C.3          1    LIG   0.0000
   2 C2          -5.4788     5.8415    -1.3519 C.3          1    LIG   0.0000
   3 O3          -4.8065     4.7939    -0.6686 O.3          1    LIG   0.0000
   4 C4          -3.6029     4.5171    -1.1053 C.2          1    LIG   0.0000
   5 O5          -3.1413     5.1349    -2.0247 O.2          1    LIG   0.0000
   6 C6          -2.8288     3.4647    -0.4783 C.2          1    LIG   0.0000
   7 C7          -3.2383     2.6501     0.6008 C.2          1    LIG   0.0000
   8 N8          -2.2398     1.8393     0.8441 N.2          1    LIG   0.0000
   9 N9          -1.2406     2.0627     0.0249 N.pl3        1    LIG   0.0000
  10 C10         -0.0164     1.3781     0.0095 C.ar         1    LIG   0.0000
  11 C11          1.1713     2.1017     0.0040 C.ar         1    LIG   0.0000
  12 C12          2.3819     1.4172    -0.0109 C.ar         1    LIG   0.0000
  13 C13          2.3938     0.0256    -0.0213 C.ar         1    LIG   0.0000
  14 C14          3.6615    -0.6793    -0.0364 C.2          1    LIG   0.0000
  15 O15          3.7140    -1.8270     0.3102 O.2          1    LIG   0.0000
  16 N16          4.7988    -0.0348    -0.4462 N.am         1    LIG   0.0000
  17 C17          6.0227    -0.7154    -0.4608 C.ar         1    LIG   0.0000
  18 C18          6.7090    -0.8524    -1.6625 C.ar         1    LIG   0.0000
  19 C19          7.9255    -1.5269    -1.6841 C.ar         1    LIG   0.0000
  20 C20          8.4462    -2.0589    -0.5100 C.ar         1    LIG   0.0000
  21 C21          9.7139    -2.7624    -0.5357 C.2          1    LIG   0.0000
  22 O22         10.7073    -2.1956    -0.8991 O.2          1    LIG   0.0000
  23 N23          9.7787    -4.0958    -0.1387 N.am         1    LIG   0.0000
  24 C24          8.5232    -4.7254     0.2939 C.3          1    LIG   0.0000
  25 C25          8.4904    -6.1985    -0.0853 C.3          1    LIG   0.0000
  26 C26          9.5639    -6.4895    -1.1225 C.3          1    LIG   0.0000
  27 C27          9.4345    -7.9034    -1.6650 C.3          1    LIG   0.0000
  28 C28         10.9114    -6.2646    -0.4551 C.3          1    LIG   0.0000
  29 C29         11.0817    -4.7768    -0.1958 C.3          1    LIG   0.0000
  30 C30          7.7631    -1.9241     0.6941 C.ar         1    LIG   0.0000
  31 C31          6.5470    -1.2488     0.7122 C.ar         1    LIG   0.0000
  32 C32          5.8025    -1.1040     2.0293 C.3          1    LIG   0.0000
  33 C33          1.2008    -0.6892    -0.0164 C.ar         1    LIG   0.0000
  34 C34         -0.0146    -0.0125    -0.0002 C.ar         1    LIG   0.0000
  35 C35         -1.5790     3.0717    -0.8221 C.2          1    LIG   0.0000
  36 C36         -0.7176     3.6472    -1.9325 C.3          1    LIG   0.0000
  37 H           -5.6403     7.9056    -1.1596 H            1    LIG   0.0000
  38 H           -5.4742     7.1392     0.2728 H            1    LIG   0.0000
  39 H           -4.1806     7.3315    -0.7052 H            1    LIG   0.0000
  40 H           -6.4650     5.6779    -1.3251 H            1    LIG   0.0000
  41 H           -5.1714     5.8702    -2.3031 H            1    LIG   0.0000
  42 H           -4.1143     2.6857     1.0818 H            1    LIG   0.0000
  43 H            1.1551     3.1015     0.0106 H            1    LIG   0.0000
  44 H            3.2435     1.9248    -0.0142 H            1    LIG   0.0000
  45 H            4.7551     0.9215    -0.7350 H            1    LIG   0.0000
  46 H            6.3307    -0.4689    -2.5051 H            1    LIG   0.0000
  47 H            8.4255    -1.6290    -2.5441 H            1    LIG   0.0000
  48 H            7.7555    -4.2580    -0.1445 H            1    LIG   0.0000
  49 H            8.4412    -4.6418     1.2870 H            1    LIG   0.0000
  50 H            8.6567    -6.7544     0.7291 H            1    LIG   0.0000
  51 H            7.5929    -6.4234    -0.4648 H            1    LIG   0.0000
  52 H            9.4661    -5.8429    -1.8791 H            1    LIG   0.0000
  53 H           10.1510    -8.0671    -2.3432 H            1    LIG   0.0000
  54 H            9.5295    -8.5581    -0.9151 H            1    LIG   0.0000
  55 H            8.5380    -8.0153    -2.0936 H            1    LIG   0.0000
  56 H           11.6429    -6.5878    -1.0555 H            1    LIG   0.0000
  57 H           10.9460    -6.7636     0.4108 H            1    LIG   0.0000
  58 H           11.5551    -4.6494     0.6758 H            1    LIG   0.0000
  59 H           11.6269    -4.3773    -0.9327 H            1    LIG   0.0000
  60 H            8.1414    -2.3080     1.5364 H            1    LIG   0.0000
  61 H            6.3256    -1.5456     2.7582 H            1    LIG   0.0000
  62 H            5.6876    -0.1337     2.2423 H            1    LIG   0.0000
  63 H            4.9044    -1.5374     1.9540 H            1    LIG   0.0000
  64 H            1.2167    -1.6890    -0.0244 H            1    LIG   0.0000
  65 H           -0.8764    -0.5199     0.0045 H            1    LIG   0.0000
  66 H           -1.2168     4.3793    -2.3961 H            1    LIG   0.0000
  67 H            0.1269     4.0146    -1.5428 H            1    LIG   0.0000
  68 H           -0.4958     2.9269    -2.5896 H            1    LIG   0.0000
@<TRIPOS>BOND
   1        1        2 1
   2        2        3 1
   3        3        4 1
   4        4        5 2
   5        4        6 1
   6        6        7 1
   7        7        8 2
   8        8        9 1
   9        9       10 1
  10       10       11 ar
  11       11       12 ar
  12       12       13 ar
  13       13       14 1
  14       14       15 2
  15       14       16 am
  16       16       17 1
  17       17       18 ar
  18       18       19 ar
  19       19       20 ar
  20       20       21 1
  21       21       22 2
  22       21       23 am
  23       23       24 1
  24       24       25 1
  25       25       26 1
  26       26       27 1
  27       26       28 1
  28       28       29 1
  29       29       23 1
  30       20       30 ar
  31       30       31 ar
  32       31       17 ar
  33       31       32 1
  34       13       33 ar
  35       33       34 ar
  36       34       10 ar
  37        9       35 1
  38       35        6 2
  39       35       36 1
  40        1       37 1
  41        1       38 1
  42        1       39 1
  43        2       40 1
  44        2       41 1
  45        7       42 1
  46       11       43 1
  47       12       44 1
  48       16       45 1
  49       18       46 1
  50       19       47 1
  51       24       48 1
  52       24       49 1
  53       25       50 1
  54       25       51 1
  55       26       52 1
  56       27       53 1
  57       27       54 1
  58       27       55 1
  59       28       56 1
  60       28       57 1
  61       29       58 1
  62       29       59 1
  63       30       60 1
  64       32       61 1
  65       32       62 1
  66       32       63 1
  67       33       64 1
  68       34       65 1
  69       36       66 1
  70       36       67 1
  71       36       68 1

@<TRIPOS>MOLECULE

  68   71
SMALL
USER_CHARGES
@<TRIPOS>ATOM
   1 C1          -3.1495     6.8500     3.9391 C.3          1    LIG   0.0000
   2 C2          -3.8916     6.1619     2.8049 C.3          1    LIG   0.0000
   3 O3          -3.0598     5.1637     2.2319 O.3          1    LIG   0.0000
   4 C4          -3.5866     4.4934     1.2373 C.2          1    LIG   0.0000
   5 O5          -4.7016     4.7421     0.8700 O.2          1    LIG   0.0000
   6 C6          -2.8228     3.4516     0.5807 C.2          1    LIG   0.0000
   7 C7          -3.2502     2.6538    -0.5040 C.2          1    LIG   0.0000
   8 N8          -2.2541     1.8504    -0.7796 N.2          1    LIG   0.0000
   9 N9          -1.2406     2.0627     0.0249 N.pl3        1    LIG   0.0000
  10 C10         -0.0164     1.3781     0.0095 C.ar         1    LIG   0.0000
  11 C11          1.1713     2.1017     0.0040 C.ar         1    LIG   0.0000
  12 C12          2.3819     1.4172    -0.0109 C.ar         1    LIG   0.0000
  13 C13          2.3938     0.0256    -0.0213 C.ar         1    LIG   0.0000
  14 C14          3.6615    -0.6793    -0.0364 C.2          1    LIG   0.0000
  15 O15          3.7085    -1.8217    -0.4006 O.2          1    LIG   0.0000
  16 N16          4.8051    -0.0408     0.3653 N.am         1    LIG   0.0000
  17 C17          6.0290    -0.7214     0.3508 C.ar         1    LIG   0.0000
  18 C18          6.7340    -0.8757     1.5396 C.ar         1    LIG   0.0000
  19 C19          7.9502    -1.5511     1.5325 C.ar         1    LIG   0.0000
  20 C20          8.4529    -2.0651     0.3426 C.ar         1    LIG   0.0000
  21 C21          9.7214    -2.7677     0.3380 C.2          1    LIG   0.0000
  22 O22          9.8614    -3.7574     1.0020 O.2          1    LIG   0.0000
  23 N23         10.7772    -2.2938    -0.4369 N.am         1    LIG   0.0000
  24 C24         12.0327    -3.0562    -0.3926 C.3          1    LIG   0.0000
  25 C25         12.7446    -3.0174    -1.7367 C.3          1    LIG   0.0000
  26 C26         11.7835    -2.5469    -2.8174 C.3          1    LIG   0.0000
  27 C27         12.4030    -2.6799    -4.1990 C.3          1    LIG   0.0000
  28 C28         11.4176    -1.1052    -2.5018 C.3          1    LIG   0.0000
  29 C29         10.5578    -1.0864    -1.2488 C.3          1    LIG   0.0000
  30 C30          7.7510    -1.9130    -0.8486 C.ar         1    LIG   0.0000
  31 C31          6.5350    -1.2374    -0.8379 C.ar         1    LIG   0.0000
  32 C32          5.7708    -1.0720    -2.1412 C.3          1    LIG   0.0000
  33 C33          1.2008    -0.6892    -0.0164 C.ar         1    LIG   0.0000
  34 C34         -0.0146    -0.0125    -0.0002 C.ar         1    LIG   0.0000
  35 C35         -1.5611     3.0650     0.8867 C.2          1    LIG   0.0000
  36 C36         -0.6760     3.6334     1.9819 C.3          1    LIG   0.0000
  37 H           -3.7353     7.5529     4.3425 H            1    LIG   0.0000
  38 H           -2.9086     6.1758     4.6372 H            1    LIG   0.0000
  39 H           -2.3166     7.2740     3.5836 H            1    LIG   0.0000
  40 H           -4.7246     5.7379     3.1604 H            1    LIG   0.0000
  41 H           -4.1325     6.8360     2.1068 H            1    LIG   0.0000
  42 H           -4.1352     2.6946    -0.9678 H            1    LIG   0.0000
  43 H            1.1551     3.1015     0.0106 H            1    LIG   0.0000
  44 H            3.2435     1.9248    -0.0142 H            1    LIG   0.0000
  45 H            4.7660     0.9112     0.6689 H            1    LIG   0.0000
  46 H            6.3694    -0.5039     2.3933 H            1    LIG   0.0000
  47 H            8.4628    -1.6669     2.3832 H            1    LIG   0.0000
  48 H           11.8295    -4.0068    -0.1579 H            1    LIG   0.0000
  49 H           12.6303    -2.6611     0.3051 H            1    LIG   0.0000
  50 H           13.5188    -2.3866    -1.6839 H            1    LIG   0.0000
  51 H           13.0758    -3.9334    -1.9633 H            1    LIG   0.0000
  52 H           10.9554    -3.1063    -2.7793 H            1    LIG   0.0000
  53 H           11.7510    -2.3643    -4.8885 H            1    LIG   0.0000
  54 H           13.2334    -2.1249    -4.2468 H            1    LIG   0.0000
  55 H           12.6321    -3.6380    -4.3708 H            1    LIG   0.0000
  56 H           10.9071    -0.7121    -3.2666 H            1    LIG   0.0000
  57 H           12.2497    -0.5725    -2.3475 H            1    LIG   0.0000
  58 H           10.7912    -0.2804    -0.7048 H            1    LIG   0.0000
  59 H            9.5948    -1.0420    -1.5143 H            1    LIG   0.0000
  60 H            8.1159    -2.2847    -1.7022 H            1    LIG   0.0000
  61 H            6.2824    -1.5029    -2.8846 H            1    LIG   0.0000
  62 H            4.8735    -1.5058    -2.0589 H            1    LIG   0.0000
  63 H            5.6536    -0.0985    -2.3378 H            1    LIG   0.0000
  64 H            1.2167    -1.6890    -0.0244 H            1    LIG   0.0000
  65 H           -0.8764    -0.5199     0.0045 H            1    LIG   0.0000
  66 H           -1.1655     4.3614     2.4618 H            1    LIG   0.0000
  67 H           -0.4390     2.9085     2.6287 H            1    LIG   0.0000
  68 H            0.1593     4.0045     1.5764 H            1    LIG   0.0000
@<TRIPOS>BOND
   1        1        2 1
   2        2        3 1
   3        3        4 1
   4        4        5 2
   5        4        6 1
   6        6        7 1
   7        7        8 2
   8        8        9 1
   9        9       10 1
  10       10       11 ar
  11       11       12 ar
  12       12       13 ar
  13       13       14 1
  14       14       15 2
  15       14       16 am
  16       16       17 1
  17       17       18 ar
  18       18       19 ar
  19       19       20 ar
  20       20       21 1
  21       21       22 2
  22       21       23 am
  23       23       24 1
  24       24       25 1
  25       25       26 1
  26       26       27 1
  27       26       28 1
  28       28       29 1
  29       29       23 1
  30       20       30 ar
  31       30       31 ar
  32       31       17 ar
  33       31       32 1
  34       13       33 ar
  35       33       34 ar
  36       34       10 ar
  37        9       35 1
  38       35        6 2
  39       35       36 1
  40        1       37 1
  41        1       38 1
  42        1       39 1
  43        2       40 1
  44        2       41 1
  45        7       42 1
  46       11       43 1
  47       12       44 1
  48       16       45 1
  49       18       46 1
  50       19       47 1
  51       24       48 1
  52       24       49 1
  53       25       50 1
  54       25       51 1
  55       26       52 1
  56       27       53 1
  57       27       54 1
  58       27       55 1
  59       28       56 1
  60       28       57 1
  61       29       58 1
  62       29       59 1
  63       30       60 1
  64       32       61 1
  65       32       62 1
  66       32       63 1
  67       33       64 1
  68       34       65 1
  69       36       66 1
  70       36       67 1
  71       36       68 1

@<TRIPOS>MOLECULE

  68   71
SMALL
USER_CHARGES
@<TRIPOS>ATOM
   1 C1          -7.3051     1.0550    -1.2835 C.3          1    LIG   0.0000
   2 C2          -6.3839     1.8181    -2.2213 C.3          1    LIG   0.0000
   3 O3          -5.0442     1.7052    -1.7645 O.3          1    LIG   0.0000
   4 C4          -4.6531     2.6349    -0.9285 C.2          1    LIG   0.0000
   5 O5          -5.4124     3.5041    -0.5998 O.2          1    LIG   0.0000
   6 C6          -3.3037     2.6137    -0.4009 C.2          1    LIG   0.0000
   7 C7          -2.7434     3.5372     0.5096 C.2          1    LIG   0.0000
   8 N8          -1.5122     3.1435     0.7160 N.2          1    LIG   0.0000
   9 N9          -1.2406     2.0627     0.0249 N.pl3        1    LIG   0.0000
  10 C10         -0.0164     1.3781     0.0095 C.ar         1    LIG   0.0000
  11 C11          1.1713     2.1017     0.0040 C.ar         1    LIG   0.0000
  12 C12          2.3819     1.4172    -0.0109 C.ar         1    LIG   0.0000
  13 C13          2.3938     0.0256    -0.0213 C.ar         1    LIG   0.0000
  14 C14          3.6615    -0.6793    -0.0364 C.2          1    LIG   0.0000
  15 O15          3.7085    -1.8217    -0.4006 O.2          1    LIG   0.0000
  16 N16          4.8051    -0.0408     0.3653 N.am         1    LIG   0.0000
  17 C17          6.0290    -0.7214     0.3508 C.ar         1    LIG   0.0000
  18 C18          6.1764    -1.8695     1.1216 C.ar         1    LIG   0.0000
  19 C19          7.3893    -2.5508     1.1115 C.ar         1    LIG   0.0000
  20 C20          8.4433    -2.0822     0.3355 C.ar         1    LIG   0.0000
  21 C21          9.7067    -2.7938     0.3278 C.2          1    LIG   0.0000
  22 O22          9.7491    -3.9373    -0.0335 O.2          1    LIG   0.0000
  23 N23         10.8693    -2.1510     0.7390 N.am         1    LIG   0.0000
  24 C24         12.1209    -2.9221     0.7101 C.3          1    LIG   0.0000
  25 C25         13.0816    -2.4430     1.7875 C.3          1    LIG   0.0000
  26 C26         12.2822    -1.7457     2.8764 C.3          1    LIG   0.0000
  27 C27         13.1380    -1.4853     4.1056 C.3          1    LIG   0.0000
  28 C28         11.7422    -0.4524     2.2897 C.3          1    LIG   0.0000
  29 C29         10.7478    -0.7531     1.1799 C.3          1    LIG   0.0000
  30 C30          8.3001    -0.9343    -0.4369 C.ar         1    LIG   0.0000
  31 C31          7.0858    -0.2557    -0.4248 C.ar         1    LIG   0.0000
  32 C32          6.9327     0.9988    -1.2691 C.3          1    LIG   0.0000
  33 C33          1.2008    -0.6892    -0.0164 C.ar         1    LIG   0.0000
  34 C34         -0.0146    -0.0125    -0.0002 C.ar         1    LIG   0.0000
  35 C35         -2.3445     1.6996    -0.6820 C.2          1    LIG   0.0000
  36 C36         -2.4711     0.5043    -1.6100 C.3          1    LIG   0.0000
  37 H           -8.2485     1.1345    -1.6052 H            1    LIG   0.0000
  38 H           -7.0389     0.0912    -1.2661 H            1    LIG   0.0000
  39 H           -7.2337     1.4371    -0.3622 H            1    LIG   0.0000
  40 H           -6.4553     1.4359    -3.1427 H            1    LIG   0.0000
  41 H           -6.6501     2.7819    -2.2387 H            1    LIG   0.0000
  42 H           -3.1961     4.3315     0.9147 H            1    LIG   0.0000
  43 H            1.1551     3.1015     0.0106 H            1    LIG   0.0000
  44 H            3.2435     1.9248    -0.0142 H            1    LIG   0.0000
  45 H            4.7660     0.9112     0.6689 H            1    LIG   0.0000
  46 H            5.4161    -2.2030     1.6790 H            1    LIG   0.0000
  47 H            7.5030    -3.3776     1.6624 H            1    LIG   0.0000
  48 H           12.5523    -2.8117    -0.1853 H            1    LIG   0.0000
  49 H           11.9133    -3.8882     0.8632 H            1    LIG   0.0000
  50 H           13.5690    -3.2251     2.1760 H            1    LIG   0.0000
  51 H           13.7402    -1.8033     1.3912 H            1    LIG   0.0000
  52 H           11.5126    -2.3290     3.1361 H            1    LIG   0.0000
  53 H           12.5879    -1.0269     4.8037 H            1    LIG   0.0000
  54 H           13.4771    -2.3543     4.4659 H            1    LIG   0.0000
  55 H           13.9119    -0.9033     3.8558 H            1    LIG   0.0000
  56 H           12.5002     0.0832     1.9175 H            1    LIG   0.0000
  57 H           11.2857     0.0712     3.0090 H            1    LIG   0.0000
  58 H            9.8201    -0.5950     1.5183 H            1    LIG   0.0000
  59 H           10.9276    -0.1474     0.4048 H            1    LIG   0.0000
  60 H            9.0606    -0.6009    -0.9941 H            1    LIG   0.0000
  61 H            7.7877     1.1800    -1.7550 H            1    LIG   0.0000
  62 H            6.1946     0.8672    -1.9309 H            1    LIG   0.0000
  63 H            6.7150     1.7747    -0.6769 H            1    LIG   0.0000
  64 H            1.2167    -1.6890    -0.0244 H            1    LIG   0.0000
  65 H           -0.8764    -0.5199     0.0045 H            1    LIG   0.0000
  66 H           -3.3930     0.4786    -1.9966 H            1    LIG   0.0000
  67 H           -1.8019     0.5835    -2.3488 H            1    LIG   0.0000
  68 H           -2.3018    -0.3364    -1.0956 H            1    LIG   0.0000
@<TRIPOS>BOND
   1        1        2 1
   2        2        3 1
   3        3        4 1
   4        4        5 2
   5        4        6 1
   6        6        7 1
   7        7        8 2
   8        8        9 1
   9        9       10 1
  10       10       11 ar
  11       11       12 ar
  12       12       13 ar
  13       13       14 1
  14       14       15 2
  15       14       16 am
  16       16       17 1
  17       17       18 ar
  18       18       19 ar
  19       19       20 ar
  20       20       21 1
  21       21       22 2
  22       21       23 am
  23       23       24 1
  24       24       25 1
  25       25       26 1
  26       26       27 1
  27       26       28 1
  28       28       29 1
  29       29       23 1
  30       20       30 ar
  31       30       31 ar
  32       31       17 ar
  33       31       32 1
  34       13       33 ar
  35       33       34 ar
  36       34       10 ar
  37        9       35 1
  38       35        6 2
  39       35       36 1
  40        1       37 1
  41        1       38 1
  42        1       39 1
  43        2       40 1
  44        2       41 1
  45        7       42 1
  46       11       43 1
  47       12       44 1
  48       16       45 1
  49       18       46 1
  50       19       47 1
  51       24       48 1
  52       24       49 1
  53       25       50 1
  54       25       51 1
  55       26       52 1
  56       27       53 1
  57       27       54 1
  58       27       55 1
  59       28       56 1
  60       28       57 1
  61       29       58 1
  62       29       59 1
  63       30       60 1
  64       32       61 1
  65       32       62 1
  66       32       63 1
  67       33       64 1
  68       34       65 1
  69       36       66 1
  70       36       67 1
  71       36       68 1

