@<TRIPOS>MOLECULE
*****
 68 71 0 0 0
SMALL
USER_CHARGES

@<TRIPOS>ATOM
      1 C1         -7.3051    1.0550   -1.2835 C.3     1  LIG1        0.0000
      2 C2         -6.3839    1.8181   -2.2213 C.3     1  LIG1        0.0000
      3 O3         -5.0442    1.7052   -1.7645 O.3     1  LIG1        0.0000
      4 C4         -4.6531    2.6349   -0.9285 C.2     1  LIG1        0.0000
      5 O5         -5.4124    3.5041   -0.5998 O.2     1  LIG1        0.0000
      6 C6         -3.3037    2.6137   -0.4009 C.2     1  LIG1        0.0000
      7 C7         -2.7434    3.5372    0.5096 C.2     1  LIG1        0.0000
      8 N8         -1.5122    3.1435    0.7160 N.2     1  LIG1        0.0000
      9 N9         -1.2406    2.0627    0.0249 N.pl3   1  LIG1        0.0000
     10 C10        -0.0164    1.3781    0.0095 C.3     1  LIG1        0.0000
     11 C11         1.1713    2.1017    0.0040 C.3     1  LIG1        0.0000
     12 C12         2.3819    1.4172   -0.0109 C.3     1  LIG1        0.0000
     13 C13         2.3938    0.0256   -0.0213 C.3     1  LIG1        0.0000
     14 C14         3.6615   -0.6793   -0.0364 C.2     1  LIG1        0.0000
     15 O15         3.7085   -1.8217   -0.4006 O.2     1  LIG1        0.0000
     16 N16         4.8051   -0.0408    0.3653 N.am    1  LIG1        0.0000
     17 C17         6.0290   -0.7214    0.3508 C.3     1  LIG1        0.0000
     18 C18         6.1764   -1.8695    1.1216 C.3     1  LIG1        0.0000
     19 C19         7.3893   -2.5508    1.1115 C.3     1  LIG1        0.0000
     20 C20         8.4433   -2.0822    0.3355 C.3     1  LIG1        0.0000
     21 C21         9.7067   -2.7938    0.3278 C.2     1  LIG1        0.0000
     22 O22         9.7491   -3.9373   -0.0335 O.2     1  LIG1        0.0000
     23 N23        10.8693   -2.1510    0.7390 N.am    1  LIG1        0.0000
     24 C24        12.1209   -2.9221    0.7101 C.3     1  LIG1        0.0000
     25 C25        13.0816   -2.4430    1.7875 C.3     1  LIG1        0.0000
     26 C26        12.2822   -1.7457    2.8764 C.3     1  LIG1        0.0000
     27 C27        13.1380   -1.4853    4.1056 C.3     1  LIG1        0.0000
     28 C28        11.7422   -0.4524    2.2897 C.3     1  LIG1        0.0000
     29 C29        10.7478   -0.7531    1.1799 C.3     1  LIG1        0.0000
     30 C30         8.3001   -0.9343   -0.4369 C.3     1  LIG1        0.0000
     31 C31         7.0858   -0.2557   -0.4248 C.3     1  LIG1        0.0000
     32 C32         6.9327    0.9988   -1.2691 C.3     1  LIG1        0.0000
     33 C33         1.2008   -0.6892   -0.0164 C.3     1  LIG1        0.0000
     34 C34        -0.0146   -0.0125   -0.0002 C.3     1  LIG1        0.0000
     35 C35        -2.3445    1.6996   -0.6820 C.2     1  LIG1        0.0000
     36 C36        -2.4711    0.5043   -1.6100 C.3     1  LIG1        0.0000
     37 H          -8.2485    1.1345   -1.6052 H       1  LIG1        0.0000
     38 H          -7.0389    0.0912   -1.2661 H       1  LIG1        0.0000
     39 H          -7.2337    1.4371   -0.3622 H       1  LIG1        0.0000
     40 H          -6.4553    1.4359   -3.1427 H       1  LIG1        0.0000
     41 H          -6.6501    2.7819   -2.2387 H       1  LIG1        0.0000
     42 H          -3.1961    4.3315    0.9147 H       1  LIG1        0.0000
     43 H           1.1551    3.1015    0.0106 H       1  LIG1        0.0000
     44 H           3.2435    1.9248   -0.0142 H       1  LIG1        0.0000
     45 H           4.7660    0.9112    0.6689 H       1  LIG1        0.0000
     46 H           5.4161   -2.2030    1.6790 H       1  LIG1        0.0000
     47 H           7.5030   -3.3776    1.6624 H       1  LIG1        0.0000
     48 H          12.5523   -2.8117   -0.1853 H       1  LIG1        0.0000
     49 H          11.9133   -3.8882    0.8632 H       1  LIG1        0.0000
     50 H          13.5690   -3.2251    2.1760 H       1  LIG1        0.0000
     51 H          13.7402   -1.8033    1.3912 H       1  LIG1        0.0000
     52 H          11.5126   -2.3290    3.1361 H       1  LIG1        0.0000
     53 H          12.5879   -1.0269    4.8037 H       1  LIG1        0.0000
     54 H          13.4771   -2.3543    4.4659 H       1  LIG1        0.0000
     55 H          13.9119   -0.9033    3.8558 H       1  LIG1        0.0000
     56 H          12.5002    0.0832    1.9175 H       1  LIG1        0.0000
     57 H          11.2857    0.0712    3.0090 H       1  LIG1        0.0000
     58 H           9.8201   -0.5950    1.5183 H       1  LIG1        0.0000
     59 H          10.9276   -0.1474    0.4048 H       1  LIG1        0.0000
     60 H           9.0606   -0.6009   -0.9941 H       1  LIG1        0.0000
     61 H           7.7877    1.1800   -1.7550 H       1  LIG1        0.0000
     62 H           6.1946    0.8672   -1.9309 H       1  LIG1        0.0000
     63 H           6.7150    1.7747   -0.6769 H       1  LIG1        0.0000
     64 H           1.2167   -1.6890   -0.0244 H       1  LIG1        0.0000
     65 H          -0.8764   -0.5199    0.0045 H       1  LIG1        0.0000
     66 H          -3.3930    0.4786   -1.9966 H       1  LIG1        0.0000
     67 H          -1.8019    0.5835   -2.3488 H       1  LIG1        0.0000
     68 H          -2.3018   -0.3364   -1.0956 H       1  LIG1        0.0000
@<TRIPOS>BOND
     1     1     2    1
     2     2     3    1
     3     3     4    1
     4     4     5    2
     5     4     6    1
     6     6     7    1
     7     7     8    2
     8     8     9    1
     9     9    10    1
    10    10    11   ar
    11    11    12   ar
    12    12    13   ar
    13    13    14    1
    14    14    15    2
    15    14    16   am
    16    16    17    1
    17    17    18   ar
    18    18    19   ar
    19    19    20   ar
    20    20    21    1
    21    21    22    2
    22    21    23   am
    23    23    24    1
    24    24    25    1
    25    25    26    1
    26    26    27    1
    27    26    28    1
    28    28    29    1
    29    29    23    1
    30    20    30   ar
    31    30    31   ar
    32    31    17   ar
    33    31    32    1
    34    13    33   ar
    35    33    34   ar
    36    34    10   ar
    37     9    35    1
    38    35     6    2
    39    35    36    1
    40     1    37    1
    41     1    38    1
    42     1    39    1
    43     2    40    1
    44     2    41    1
    45     7    42    1
    46    11    43    1
    47    12    44    1
    48    16    45    1
    49    18    46    1
    50    19    47    1
    51    24    48    1
    52    24    49    1
    53    25    50    1
    54    25    51    1
    55    26    52    1
    56    27    53    1
    57    27    54    1
    58    27    55    1
    59    28    56    1
    60    28    57    1
    61    29    58    1
    62    29    59    1
    63    30    60    1
    64    32    61    1
    65    32    62    1
    66    32    63    1
    67    33    64    1
    68    34    65    1
    69    36    66    1
    70    36    67    1
    71    36    68    1
