@<TRIPOS>MOLECULE
*****
 68 71 0 0 0
SMALL
USER_CHARGES

@<TRIPOS>ATOM
      1 C1         -3.1495    6.8500    3.9391 C.3     1  LIG1        0.0000
      2 C2         -3.8916    6.1619    2.8049 C.3     1  LIG1        0.0000
      3 O3         -3.0598    5.1637    2.2319 O.3     1  LIG1        0.0000
      4 C4         -3.5866    4.4934    1.2373 C.2     1  LIG1        0.0000
      5 O5         -4.7016    4.7421    0.8700 O.2     1  LIG1        0.0000
      6 C6         -2.8228    3.4516    0.5807 C.2     1  LIG1        0.0000
      7 C7         -3.2502    2.6538   -0.5040 C.2     1  LIG1        0.0000
      8 N8         -2.2541    1.8504   -0.7796 N.2     1  LIG1        0.0000
      9 N9         -1.2406    2.0627    0.0249 N.pl3   1  LIG1        0.0000
     10 C10        -0.0164    1.3781    0.0095 C.3     1  LIG1        0.0000
     11 C11         1.1713    2.1017    0.0040 C.3     1  LIG1        0.0000
     12 C12         2.3819    1.4172   -0.0109 C.3     1  LIG1        0.0000
     13 C13         2.3938    0.0256   -0.0213 C.3     1  LIG1        0.0000
     14 C14         3.6615   -0.6793   -0.0364 C.2     1  LIG1        0.0000
     15 O15         3.7085   -1.8217   -0.4006 O.2     1  LIG1        0.0000
     16 N16         4.8051   -0.0408    0.3653 N.am    1  LIG1        0.0000
     17 C17         6.0290   -0.7214    0.3508 C.3     1  LIG1        0.0000
     18 C18         6.7340   -0.8757    1.5396 C.3     1  LIG1        0.0000
     19 C19         7.9502   -1.5511    1.5325 C.3     1  LIG1        0.0000
     20 C20         8.4529   -2.0651    0.3426 C.3     1  LIG1        0.0000
     21 C21         9.7214   -2.7677    0.3380 C.2     1  LIG1        0.0000
     22 O22         9.8614   -3.7574    1.0020 O.2     1  LIG1        0.0000
     23 N23        10.7772   -2.2938   -0.4369 N.am    1  LIG1        0.0000
     24 C24        12.0327   -3.0562   -0.3926 C.3     1  LIG1        0.0000
     25 C25        12.7446   -3.0174   -1.7367 C.3     1  LIG1        0.0000
     26 C26        11.7835   -2.5469   -2.8174 C.3     1  LIG1        0.0000
     27 C27        12.4030   -2.6799   -4.1990 C.3     1  LIG1        0.0000
     28 C28        11.4176   -1.1052   -2.5018 C.3     1  LIG1        0.0000
     29 C29        10.5578   -1.0864   -1.2488 C.3     1  LIG1        0.0000
     30 C30         7.7510   -1.9130   -0.8486 C.3     1  LIG1        0.0000
     31 C31         6.5350   -1.2374   -0.8379 C.3     1  LIG1        0.0000
     32 C32         5.7708   -1.0720   -2.1412 C.3     1  LIG1        0.0000
     33 C33         1.2008   -0.6892   -0.0164 C.3     1  LIG1        0.0000
     34 C34        -0.0146   -0.0125   -0.0002 C.3     1  LIG1        0.0000
     35 C35        -1.5611    3.0650    0.8867 C.2     1  LIG1        0.0000
     36 C36        -0.6760    3.6334    1.9819 C.3     1  LIG1        0.0000
     37 H          -3.7353    7.5529    4.3425 H       1  LIG1        0.0000
     38 H          -2.9086    6.1758    4.6372 H       1  LIG1        0.0000
     39 H          -2.3166    7.2740    3.5836 H       1  LIG1        0.0000
     40 H          -4.7246    5.7379    3.1604 H       1  LIG1        0.0000
     41 H          -4.1325    6.8360    2.1068 H       1  LIG1        0.0000
     42 H          -4.1352    2.6946   -0.9678 H       1  LIG1        0.0000
     43 H           1.1551    3.1015    0.0106 H       1  LIG1        0.0000
     44 H           3.2435    1.9248   -0.0142 H       1  LIG1        0.0000
     45 H           4.7660    0.9112    0.6689 H       1  LIG1        0.0000
     46 H           6.3694   -0.5039    2.3933 H       1  LIG1        0.0000
     47 H           8.4628   -1.6669    2.3832 H       1  LIG1        0.0000
     48 H          11.8295   -4.0068   -0.1579 H       1  LIG1        0.0000
     49 H          12.6303   -2.6611    0.3051 H       1  LIG1        0.0000
     50 H          13.5188   -2.3866   -1.6839 H       1  LIG1        0.0000
     51 H          13.0758   -3.9334   -1.9633 H       1  LIG1        0.0000
     52 H          10.9554   -3.1063   -2.7793 H       1  LIG1        0.0000
     53 H          11.7510   -2.3643   -4.8885 H       1  LIG1        0.0000
     54 H          13.2334   -2.1249   -4.2468 H       1  LIG1        0.0000
     55 H          12.6321   -3.6380   -4.3708 H       1  LIG1        0.0000
     56 H          10.9071   -0.7121   -3.2666 H       1  LIG1        0.0000
     57 H          12.2497   -0.5725   -2.3475 H       1  LIG1        0.0000
     58 H          10.7912   -0.2804   -0.7048 H       1  LIG1        0.0000
     59 H           9.5948   -1.0420   -1.5143 H       1  LIG1        0.0000
     60 H           8.1159   -2.2847   -1.7022 H       1  LIG1        0.0000
     61 H           6.2824   -1.5029   -2.8846 H       1  LIG1        0.0000
     62 H           4.8735   -1.5058   -2.0589 H       1  LIG1        0.0000
     63 H           5.6536   -0.0985   -2.3378 H       1  LIG1        0.0000
     64 H           1.2167   -1.6890   -0.0244 H       1  LIG1        0.0000
     65 H          -0.8764   -0.5199    0.0045 H       1  LIG1        0.0000
     66 H          -1.1655    4.3614    2.4618 H       1  LIG1        0.0000
     67 H          -0.4390    2.9085    2.6287 H       1  LIG1        0.0000
     68 H           0.1593    4.0045    1.5764 H       1  LIG1        0.0000
@<TRIPOS>BOND
     1     1     2    1
     2     2     3    1
     3     3     4    1
     4     4     5    2
     5     4     6    1
     6     6     7    1
     7     7     8    2
     8     8     9    1
     9     9    10    1
    10    10    11   ar
    11    11    12   ar
    12    12    13   ar
    13    13    14    1
    14    14    15    2
    15    14    16   am
    16    16    17    1
    17    17    18   ar
    18    18    19   ar
    19    19    20   ar
    20    20    21    1
    21    21    22    2
    22    21    23   am
    23    23    24    1
    24    24    25    1
    25    25    26    1
    26    26    27    1
    27    26    28    1
    28    28    29    1
    29    29    23    1
    30    20    30   ar
    31    30    31   ar
    32    31    17   ar
    33    31    32    1
    34    13    33   ar
    35    33    34   ar
    36    34    10   ar
    37     9    35    1
    38    35     6    2
    39    35    36    1
    40     1    37    1
    41     1    38    1
    42     1    39    1
    43     2    40    1
    44     2    41    1
    45     7    42    1
    46    11    43    1
    47    12    44    1
    48    16    45    1
    49    18    46    1
    50    19    47    1
    51    24    48    1
    52    24    49    1
    53    25    50    1
    54    25    51    1
    55    26    52    1
    56    27    53    1
    57    27    54    1
    58    27    55    1
    59    28    56    1
    60    28    57    1
    61    29    58    1
    62    29    59    1
    63    30    60    1
    64    32    61    1
    65    32    62    1
    66    32    63    1
    67    33    64    1
    68    34    65    1
    69    36    66    1
    70    36    67    1
    71    36    68    1
