@<TRIPOS>MOLECULE
*****
 68 71 0 0 0
SMALL
USER_CHARGES

@<TRIPOS>ATOM
      1 C1         -6.8573    6.0020    0.9719 C.3     1  LIG1        0.0000
      2 C2         -5.4643    5.8022    1.5463 C.3     1  LIG1        0.0000
      3 O3         -4.8038    4.7648    0.8363 O.3     1  LIG1        0.0000
      4 C4         -3.5866    4.4934    1.2373 C.2     1  LIG1        0.0000
      5 O5         -3.1040    5.1074    2.1484 O.2     1  LIG1        0.0000
      6 C6         -2.8228    3.4516    0.5807 C.2     1  LIG1        0.0000
      7 C7         -3.2502    2.6538   -0.5040 C.2     1  LIG1        0.0000
      8 N8         -2.2541    1.8504   -0.7796 N.2     1  LIG1        0.0000
      9 N9         -1.2406    2.0627    0.0249 N.pl3   1  LIG1        0.0000
     10 C10        -0.0164    1.3781    0.0095 C.3     1  LIG1        0.0000
     11 C11         1.1713    2.1017    0.0040 C.3     1  LIG1        0.0000
     12 C12         2.3819    1.4172   -0.0109 C.3     1  LIG1        0.0000
     13 C13         2.3938    0.0256   -0.0213 C.3     1  LIG1        0.0000
     14 C14         3.6615   -0.6793   -0.0364 C.2     1  LIG1        0.0000
     15 O15         4.6632   -0.1201    0.3155 O.2     1  LIG1        0.0000
     16 N16         3.7151   -1.9836   -0.4522 N.am    1  LIG1        0.0000
     17 C17         4.9390   -2.6641   -0.4667 C.3     1  LIG1        0.0000
     18 C18         5.4204   -3.1695   -1.6696 C.3     1  LIG1        0.0000
     19 C19         6.6357   -3.8462   -1.6914 C.3     1  LIG1        0.0000
     20 C20         7.3590   -4.0140   -0.5160 C.3     1  LIG1        0.0000
     21 C21         8.6249   -4.7207   -0.5415 C.2     1  LIG1        0.0000
     22 O22         9.5274   -4.3107   -1.2179 O.2     1  LIG1        0.0000
     23 N23         8.7939   -5.8794    0.2216 N.am    1  LIG1        0.0000
     24 C24         7.6617   -6.3475    1.0367 C.3     1  LIG1        0.0000
     25 C25         7.6368   -7.8653    1.1564 C.3     1  LIG1        0.0000
     26 C26         9.0048   -8.4468    1.4829 C.3     1  LIG1        0.0000
     27 C27         8.8763   -9.9619    1.4994 C.3     1  LIG1        0.0000
     28 C28         9.9394   -8.0795    0.3382 C.3     1  LIG1        0.0000
     29 C29        10.0907   -6.5747    0.1672 C.3     1  LIG1        0.0000
     30 C30         6.8811   -3.5101    0.6892 C.3     1  LIG1        0.0000
     31 C31         5.6657   -2.8336    0.7073 C.3     1  LIG1        0.0000
     32 C32         5.1458   -2.2849    2.0259 C.3     1  LIG1        0.0000
     33 C33         1.2008   -0.6892   -0.0164 C.3     1  LIG1        0.0000
     34 C34        -0.0146   -0.0125   -0.0002 C.3     1  LIG1        0.0000
     35 C35        -1.5611    3.0650    0.8867 C.2     1  LIG1        0.0000
     36 C36        -0.6760    3.6334    1.9819 C.3     1  LIG1        0.0000
     37 H          -7.3224    6.7325    1.4719 H       1  LIG1        0.0000
     38 H          -6.7869    6.2515    0.0061 H       1  LIG1        0.0000
     39 H          -7.3789    5.1534    1.0597 H       1  LIG1        0.0000
     40 H          -4.9426    6.6508    1.4585 H       1  LIG1        0.0000
     41 H          -5.5346    5.5526    2.5121 H       1  LIG1        0.0000
     42 H          -4.1352    2.6946   -0.9678 H       1  LIG1        0.0000
     43 H           1.1551    3.1015    0.0106 H       1  LIG1        0.0000
     44 H           3.2435    1.9248   -0.0142 H       1  LIG1        0.0000
     45 H           2.8804   -2.4496   -0.7454 H       1  LIG1        0.0000
     46 H           4.8968   -3.0474   -2.5128 H       1  LIG1        0.0000
     47 H           6.9890   -4.2120   -2.5524 H       1  LIG1        0.0000
     48 H           6.8095   -6.0428    0.6114 H       1  LIG1        0.0000
     49 H           7.7373   -5.9523    1.9522 H       1  LIG1        0.0000
     50 H           6.9986   -8.1191    1.8833 H       1  LIG1        0.0000
     51 H           7.3235   -8.2503    0.2883 H       1  LIG1        0.0000
     52 H           9.3473   -8.1016    2.3567 H       1  LIG1        0.0000
     53 H           9.7643  -10.3694    1.7122 H       1  LIG1        0.0000
     54 H           8.2102  -10.2324    2.1945 H       1  LIG1        0.0000
     55 H           8.5698  -10.2802    0.6023 H       1  LIG1        0.0000
     56 H           9.5737   -8.4632   -0.5098 H       1  LIG1        0.0000
     57 H          10.8402   -8.4734    0.5210 H       1  LIG1        0.0000
     58 H          10.6757   -6.2241    0.8985 H       1  LIG1        0.0000
     59 H          10.5180   -6.3919   -0.7182 H       1  LIG1        0.0000
     60 H           7.4048   -3.6325    1.5322 H       1  LIG1        0.0000
     61 H           5.7951   -2.4996    2.7555 H       1  LIG1        0.0000
     62 H           5.0395   -1.2931    1.9555 H       1  LIG1        0.0000
     63 H           4.2607   -2.7011    2.2343 H       1  LIG1        0.0000
     64 H           1.2167   -1.6890   -0.0244 H       1  LIG1        0.0000
     65 H          -0.8764   -0.5199    0.0045 H       1  LIG1        0.0000
     66 H          -1.1655    4.3614    2.4618 H       1  LIG1        0.0000
     67 H          -0.4390    2.9085    2.6287 H       1  LIG1        0.0000
     68 H           0.1593    4.0045    1.5764 H       1  LIG1        0.0000
@<TRIPOS>BOND
     1     1     2    1
     2     2     3    1
     3     3     4    1
     4     4     5    2
     5     4     6    1
     6     6     7    1
     7     7     8    2
     8     8     9    1
     9     9    10    1
    10    10    11   ar
    11    11    12   ar
    12    12    13   ar
    13    13    14    1
    14    14    15    2
    15    14    16   am
    16    16    17    1
    17    17    18   ar
    18    18    19   ar
    19    19    20   ar
    20    20    21    1
    21    21    22    2
    22    21    23   am
    23    23    24    1
    24    24    25    1
    25    25    26    1
    26    26    27    1
    27    26    28    1
    28    28    29    1
    29    29    23    1
    30    20    30   ar
    31    30    31   ar
    32    31    17   ar
    33    31    32    1
    34    13    33   ar
    35    33    34   ar
    36    34    10   ar
    37     9    35    1
    38    35     6    2
    39    35    36    1
    40     1    37    1
    41     1    38    1
    42     1    39    1
    43     2    40    1
    44     2    41    1
    45     7    42    1
    46    11    43    1
    47    12    44    1
    48    16    45    1
    49    18    46    1
    50    19    47    1
    51    24    48    1
    52    24    49    1
    53    25    50    1
    54    25    51    1
    55    26    52    1
    56    27    53    1
    57    27    54    1
    58    27    55    1
    59    28    56    1
    60    28    57    1
    61    29    58    1
    62    29    59    1
    63    30    60    1
    64    32    61    1
    65    32    62    1
    66    32    63    1
    67    33    64    1
    68    34    65    1
    69    36    66    1
    70    36    67    1
    71    36    68    1
