@<TRIPOS>MOLECULE
*****
 68 71 0 0 0
SMALL
USER_CHARGES

@<TRIPOS>ATOM
      1 C1         -3.1495    6.8500    3.9391 C.3     1  LIG1        0.0000
      2 C2         -3.8916    6.1619    2.8049 C.3     1  LIG1        0.0000
      3 O3         -3.0598    5.1637    2.2319 O.3     1  LIG1        0.0000
      4 C4         -3.5866    4.4934    1.2373 C.2     1  LIG1        0.0000
      5 O5         -4.7016    4.7421    0.8700 O.2     1  LIG1        0.0000
      6 C6         -2.8228    3.4516    0.5807 C.2     1  LIG1        0.0000
      7 C7         -3.2502    2.6538   -0.5040 C.2     1  LIG1        0.0000
      8 N8         -2.2541    1.8504   -0.7796 N.2     1  LIG1        0.0000
      9 N9         -1.2406    2.0627    0.0249 N.pl3   1  LIG1        0.0000
     10 C10        -0.0164    1.3781    0.0095 C.3     1  LIG1        0.0000
     11 C11         1.1713    2.1017    0.0040 C.3     1  LIG1        0.0000
     12 C12         2.3819    1.4172   -0.0109 C.3     1  LIG1        0.0000
     13 C13         2.3938    0.0256   -0.0213 C.3     1  LIG1        0.0000
     14 C14         3.6615   -0.6793   -0.0364 C.2     1  LIG1        0.0000
     15 O15         3.7140   -1.8270    0.3102 O.2     1  LIG1        0.0000
     16 N16         4.7988   -0.0348   -0.4462 N.am    1  LIG1        0.0000
     17 C17         6.0227   -0.7154   -0.4608 C.3     1  LIG1        0.0000
     18 C18         6.7090   -0.8524   -1.6625 C.3     1  LIG1        0.0000
     19 C19         7.9255   -1.5269   -1.6841 C.3     1  LIG1        0.0000
     20 C20         8.4462   -2.0589   -0.5100 C.3     1  LIG1        0.0000
     21 C21         9.7139   -2.7624   -0.5357 C.2     1  LIG1        0.0000
     22 O22        10.7073   -2.1956   -0.8991 O.2     1  LIG1        0.0000
     23 N23         9.7787   -4.0958   -0.1387 N.am    1  LIG1        0.0000
     24 C24        11.0961   -4.7448   -0.1907 C.3     1  LIG1        0.0000
     25 C25        11.2499   -5.7623    0.9300 C.3     1  LIG1        0.0000
     26 C26        10.1794   -5.5341    1.9859 C.3     1  LIG1        0.0000
     27 C27        10.4196   -6.4046    3.2085 C.3     1  LIG1        0.0000
     28 C28         8.8353   -5.8309    1.3399 C.3     1  LIG1        0.0000
     29 C29         8.5403   -4.7480    0.3152 C.3     1  LIG1        0.0000
     30 C30         7.7631   -1.9241    0.6941 C.3     1  LIG1        0.0000
     31 C31         6.5470   -1.2488    0.7122 C.3     1  LIG1        0.0000
     32 C32         5.8025   -1.1040    2.0293 C.3     1  LIG1        0.0000
     33 C33         1.2008   -0.6892   -0.0164 C.3     1  LIG1        0.0000
     34 C34        -0.0146   -0.0125   -0.0002 C.3     1  LIG1        0.0000
     35 C35        -1.5611    3.0650    0.8867 C.2     1  LIG1        0.0000
     36 C36        -0.6760    3.6334    1.9819 C.3     1  LIG1        0.0000
     37 H          -3.7353    7.5529    4.3425 H       1  LIG1        0.0000
     38 H          -2.9086    6.1758    4.6372 H       1  LIG1        0.0000
     39 H          -2.3166    7.2740    3.5836 H       1  LIG1        0.0000
     40 H          -4.7246    5.7379    3.1604 H       1  LIG1        0.0000
     41 H          -4.1325    6.8360    2.1068 H       1  LIG1        0.0000
     42 H          -4.1352    2.6946   -0.9678 H       1  LIG1        0.0000
     43 H           1.1551    3.1015    0.0106 H       1  LIG1        0.0000
     44 H           3.2435    1.9248   -0.0142 H       1  LIG1        0.0000
     45 H           4.7551    0.9215   -0.7350 H       1  LIG1        0.0000
     46 H           6.3307   -0.4689   -2.5051 H       1  LIG1        0.0000
     47 H           8.4255   -1.6290   -2.5441 H       1  LIG1        0.0000
     48 H          11.8074   -4.0478   -0.0990 H       1  LIG1        0.0000
     49 H          11.1967   -5.2099   -1.0702 H       1  LIG1        0.0000
     50 H          11.1553   -6.6848    0.5558 H       1  LIG1        0.0000
     51 H          12.1534   -5.6627    1.3468 H       1  LIG1        0.0000
     52 H          10.1992   -4.5738    2.2640 H       1  LIG1        0.0000
     53 H           9.7029   -6.2347    3.8848 H       1  LIG1        0.0000
     54 H          10.4032   -7.3679    2.9403 H       1  LIG1        0.0000
     55 H          11.3109   -6.1841    3.6048 H       1  LIG1        0.0000
     56 H           8.1199   -5.8376    2.0385 H       1  LIG1        0.0000
     57 H           8.8683   -6.7224    0.8880 H       1  LIG1        0.0000
     58 H           8.0807   -5.1597   -0.4717 H       1  LIG1        0.0000
     59 H           7.9424   -4.0614    0.7288 H       1  LIG1        0.0000
     60 H           8.1414   -2.3080    1.5364 H       1  LIG1        0.0000
     61 H           6.3256   -1.5456    2.7582 H       1  LIG1        0.0000
     62 H           5.6876   -0.1337    2.2423 H       1  LIG1        0.0000
     63 H           4.9044   -1.5374    1.9540 H       1  LIG1        0.0000
     64 H           1.2167   -1.6890   -0.0244 H       1  LIG1        0.0000
     65 H          -0.8764   -0.5199    0.0045 H       1  LIG1        0.0000
     66 H          -1.1655    4.3614    2.4618 H       1  LIG1        0.0000
     67 H          -0.4390    2.9085    2.6287 H       1  LIG1        0.0000
     68 H           0.1593    4.0045    1.5764 H       1  LIG1        0.0000
@<TRIPOS>BOND
     1     1     2    1
     2     2     3    1
     3     3     4    1
     4     4     5    2
     5     4     6    1
     6     6     7    1
     7     7     8    2
     8     8     9    1
     9     9    10    1
    10    10    11   ar
    11    11    12   ar
    12    12    13   ar
    13    13    14    1
    14    14    15    2
    15    14    16   am
    16    16    17    1
    17    17    18   ar
    18    18    19   ar
    19    19    20   ar
    20    20    21    1
    21    21    22    2
    22    21    23   am
    23    23    24    1
    24    24    25    1
    25    25    26    1
    26    26    27    1
    27    26    28    1
    28    28    29    1
    29    29    23    1
    30    20    30   ar
    31    30    31   ar
    32    31    17   ar
    33    31    32    1
    34    13    33   ar
    35    33    34   ar
    36    34    10   ar
    37     9    35    1
    38    35     6    2
    39    35    36    1
    40     1    37    1
    41     1    38    1
    42     1    39    1
    43     2    40    1
    44     2    41    1
    45     7    42    1
    46    11    43    1
    47    12    44    1
    48    16    45    1
    49    18    46    1
    50    19    47    1
    51    24    48    1
    52    24    49    1
    53    25    50    1
    54    25    51    1
    55    26    52    1
    56    27    53    1
    57    27    54    1
    58    27    55    1
    59    28    56    1
    60    28    57    1
    61    29    58    1
    62    29    59    1
    63    30    60    1
    64    32    61    1
    65    32    62    1
    66    32    63    1
    67    33    64    1
    68    34    65    1
    69    36    66    1
    70    36    67    1
    71    36    68    1
