@<TRIPOS>MOLECULE
*****
 68 71 0 0 0
SMALL
USER_CHARGES

@<TRIPOS>ATOM
      1 C1         -6.2195    5.2085    2.7243 C.3     1  LIG1        0.0000
      2 C2         -5.4643    5.8022    1.5463 C.3     1  LIG1        0.0000
      3 O3         -4.8038    4.7648    0.8363 O.3     1  LIG1        0.0000
      4 C4         -3.5866    4.4934    1.2373 C.2     1  LIG1        0.0000
      5 O5         -3.1040    5.1074    2.1484 O.2     1  LIG1        0.0000
      6 C6         -2.8228    3.4516    0.5807 C.2     1  LIG1        0.0000
      7 C7         -3.2502    2.6538   -0.5040 C.2     1  LIG1        0.0000
      8 N8         -2.2541    1.8504   -0.7796 N.2     1  LIG1        0.0000
      9 N9         -1.2406    2.0627    0.0249 N.pl3   1  LIG1        0.0000
     10 C10        -0.0164    1.3781    0.0095 C.3     1  LIG1        0.0000
     11 C11         1.1713    2.1017    0.0040 C.3     1  LIG1        0.0000
     12 C12         2.3819    1.4172   -0.0109 C.3     1  LIG1        0.0000
     13 C13         2.3938    0.0256   -0.0213 C.3     1  LIG1        0.0000
     14 C14         3.6615   -0.6793   -0.0364 C.2     1  LIG1        0.0000
     15 O15         3.7140   -1.8270    0.3102 O.2     1  LIG1        0.0000
     16 N16         4.7988   -0.0348   -0.4462 N.am    1  LIG1        0.0000
     17 C17         6.0227   -0.7154   -0.4608 C.3     1  LIG1        0.0000
     18 C18         7.0739   -0.2383    0.3147 C.3     1  LIG1        0.0000
     19 C19         8.2923   -0.9097    0.3054 C.3     1  LIG1        0.0000
     20 C20         8.4525   -2.0483   -0.4761 C.3     1  LIG1        0.0000
     21 C21         9.7240   -2.7455   -0.4847 C.2     1  LIG1        0.0000
     22 O22         9.7573   -3.9304   -0.6715 O.2     1  LIG1        0.0000
     23 N23        10.9184   -2.0327   -0.2739 N.am    1  LIG1        0.0000
     24 C24        10.9313   -0.5819   -0.0408 C.3     1  LIG1        0.0000
     25 C25        12.2369   -0.0548   -0.6147 C.3     1  LIG1        0.0000
     26 C26        13.4245   -0.5341    0.2047 C.3     1  LIG1        0.0000
     27 C27        13.6603    0.3543    1.4162 C.3     1  LIG1        0.0000
     28 C28        13.1115   -1.9332    0.7072 C.3     1  LIG1        0.0000
     29 C29        12.2307   -2.6961   -0.2713 C.3     1  LIG1        0.0000
     30 C30         7.4037   -2.5288   -1.2532 C.3     1  LIG1        0.0000
     31 C31         6.1866   -1.8552   -1.2412 C.3     1  LIG1        0.0000
     32 C32         5.0428   -2.3822   -2.0921 C.3     1  LIG1        0.0000
     33 C33         1.2008   -0.6892   -0.0164 C.3     1  LIG1        0.0000
     34 C34        -0.0146   -0.0125   -0.0002 C.3     1  LIG1        0.0000
     35 C35        -1.5611    3.0650    0.8867 C.2     1  LIG1        0.0000
     36 C36        -0.6760    3.6334    1.9819 C.3     1  LIG1        0.0000
     37 H          -6.6846    5.9390    3.2243 H       1  LIG1        0.0000
     38 H          -6.8947    4.5510    2.3902 H       1  LIG1        0.0000
     39 H          -5.5760    4.7451    3.3335 H       1  LIG1        0.0000
     40 H          -6.1078    6.2656    0.9372 H       1  LIG1        0.0000
     41 H          -4.7890    6.4597    1.8805 H       1  LIG1        0.0000
     42 H          -4.1352    2.6946   -0.9678 H       1  LIG1        0.0000
     43 H           1.1551    3.1015    0.0106 H       1  LIG1        0.0000
     44 H           3.2435    1.9248   -0.0142 H       1  LIG1        0.0000
     45 H           4.7551    0.9215   -0.7350 H       1  LIG1        0.0000
     46 H           6.9549    0.5814    0.8750 H       1  LIG1        0.0000
     47 H           9.0528   -0.5734    0.8608 H       1  LIG1        0.0000
     48 H          10.8844   -0.3905    0.9396 H       1  LIG1        0.0000
     49 H          10.1547   -0.1524   -0.5017 H       1  LIG1        0.0000
     50 H          12.3358   -0.3801   -1.5551 H       1  LIG1        0.0000
     51 H          12.2172    0.9449   -0.6081 H       1  LIG1        0.0000
     52 H          14.2451   -0.5542   -0.3665 H       1  LIG1        0.0000
     53 H          14.4459    0.0127    1.9322 H       1  LIG1        0.0000
     54 H          13.8417    1.2898    1.1133 H       1  LIG1        0.0000
     55 H          12.8483    0.3444    1.9999 H       1  LIG1        0.0000
     56 H          12.6372   -1.8642    1.5849 H       1  LIG1        0.0000
     57 H          13.9687   -2.4332    0.8300 H       1  LIG1        0.0000
     58 H          12.6312   -2.6691   -1.1872 H       1  LIG1        0.0000
     59 H          12.1344   -3.6471    0.0225 H       1  LIG1        0.0000
     60 H           7.5231   -3.3485   -1.8135 H       1  LIG1        0.0000
     61 H           5.3412   -3.2020   -2.5809 H       1  LIG1        0.0000
     62 H           4.2667   -2.6090   -1.5037 H       1  LIG1        0.0000
     63 H           4.7679   -1.6825   -2.7515 H       1  LIG1        0.0000
     64 H           1.2167   -1.6890   -0.0244 H       1  LIG1        0.0000
     65 H          -0.8764   -0.5199    0.0045 H       1  LIG1        0.0000
     66 H          -1.1655    4.3614    2.4618 H       1  LIG1        0.0000
     67 H          -0.4390    2.9085    2.6287 H       1  LIG1        0.0000
     68 H           0.1593    4.0045    1.5764 H       1  LIG1        0.0000
@<TRIPOS>BOND
     1     1     2    1
     2     2     3    1
     3     3     4    1
     4     4     5    2
     5     4     6    1
     6     6     7    1
     7     7     8    2
     8     8     9    1
     9     9    10    1
    10    10    11   ar
    11    11    12   ar
    12    12    13   ar
    13    13    14    1
    14    14    15    2
    15    14    16   am
    16    16    17    1
    17    17    18   ar
    18    18    19   ar
    19    19    20   ar
    20    20    21    1
    21    21    22    2
    22    21    23   am
    23    23    24    1
    24    24    25    1
    25    25    26    1
    26    26    27    1
    27    26    28    1
    28    28    29    1
    29    29    23    1
    30    20    30   ar
    31    30    31   ar
    32    31    17   ar
    33    31    32    1
    34    13    33   ar
    35    33    34   ar
    36    34    10   ar
    37     9    35    1
    38    35     6    2
    39    35    36    1
    40     1    37    1
    41     1    38    1
    42     1    39    1
    43     2    40    1
    44     2    41    1
    45     7    42    1
    46    11    43    1
    47    12    44    1
    48    16    45    1
    49    18    46    1
    50    19    47    1
    51    24    48    1
    52    24    49    1
    53    25    50    1
    54    25    51    1
    55    26    52    1
    56    27    53    1
    57    27    54    1
    58    27    55    1
    59    28    56    1
    60    28    57    1
    61    29    58    1
    62    29    59    1
    63    30    60    1
    64    32    61    1
    65    32    62    1
    66    32    63    1
    67    33    64    1
    68    34    65    1
    69    36    66    1
    70    36    67    1
    71    36    68    1
