@<TRIPOS>MOLECULE
*****
 68 71 0 0 0
SMALL
USER_CHARGES

@<TRIPOS>ATOM
      1 C1         -7.6218    4.6711   -0.6373 C.3     1  LIG1        0.0000
      2 C2         -6.7787    3.5122   -1.1438 C.3     1  LIG1        0.0000
      3 O3         -5.4820    3.5837   -0.5696 O.3     1  LIG1        0.0000
      4 C4         -4.6531    2.6349   -0.9285 C.2     1  LIG1        0.0000
      5 O5         -5.0113    1.7833   -1.6943 O.2     1  LIG1        0.0000
      6 C6         -3.3037    2.6137   -0.4009 C.2     1  LIG1        0.0000
      7 C7         -2.7434    3.5372    0.5096 C.2     1  LIG1        0.0000
      8 N8         -1.5122    3.1435    0.7160 N.2     1  LIG1        0.0000
      9 N9         -1.2406    2.0627    0.0249 N.pl3   1  LIG1        0.0000
     10 C10        -0.0164    1.3781    0.0095 C.3     1  LIG1        0.0000
     11 C11         1.1713    2.1017    0.0040 C.3     1  LIG1        0.0000
     12 C12         2.3819    1.4172   -0.0109 C.3     1  LIG1        0.0000
     13 C13         2.3938    0.0256   -0.0213 C.3     1  LIG1        0.0000
     14 C14         3.6615   -0.6793   -0.0364 C.2     1  LIG1        0.0000
     15 O15         4.6577   -0.1148   -0.3954 O.2     1  LIG1        0.0000
     16 N16         3.7214   -1.9896    0.3593 N.am    1  LIG1        0.0000
     17 C17         4.9452   -2.6701    0.3448 C.3     1  LIG1        0.0000
     18 C18         5.9104   -2.3114   -0.5900 C.3     1  LIG1        0.0000
     19 C19         7.1286   -2.9830   -0.6098 C.3     1  LIG1        0.0000
     20 C20         7.3736   -4.0051    0.3001 C.3     1  LIG1        0.0000
     21 C21         8.6439   -4.7041    0.2764 C.2     1  LIG1        0.0000
     22 O22         8.9855   -5.2946   -0.7108 O.2     1  LIG1        0.0000
     23 N23         9.4704   -4.6899    1.4035 N.am    1  LIG1        0.0000
     24 C24        10.7508   -5.4120    1.3369 C.3     1  LIG1        0.0000
     25 C25        11.8276   -4.7382    2.1765 C.3     1  LIG1        0.0000
     26 C26        11.3293   -4.3501    3.5612 C.3     1  LIG1        0.0000
     27 C27        12.4560   -3.6202    4.2753 C.3     1  LIG1        0.0000
     28 C28        10.1894   -3.3582    3.3722 C.3     1  LIG1        0.0000
     29 C29         9.0223   -3.9506    2.5953 C.3     1  LIG1        0.0000
     30 C30         6.4111   -4.3671    1.2367 C.3     1  LIG1        0.0000
     31 C31         5.1941   -3.6932    1.2539 C.3     1  LIG1        0.0000
     32 C32         4.1441   -4.0916    2.2780 C.3     1  LIG1        0.0000
     33 C33         1.2008   -0.6892   -0.0164 C.3     1  LIG1        0.0000
     34 C34        -0.0146   -0.0125   -0.0002 C.3     1  LIG1        0.0000
     35 C35        -2.3445    1.6996   -0.6820 C.2     1  LIG1        0.0000
     36 C36        -2.4711    0.5043   -1.6100 C.3     1  LIG1        0.0000
     37 H          -8.5350    4.6207   -1.0416 H       1  LIG1        0.0000
     38 H          -7.6949    4.6198    0.3587 H       1  LIG1        0.0000
     39 H          -7.1900    5.5353   -0.8957 H       1  LIG1        0.0000
     40 H          -7.2105    2.6480   -0.8854 H       1  LIG1        0.0000
     41 H          -6.7056    3.5635   -2.1398 H       1  LIG1        0.0000
     42 H          -3.1961    4.3315    0.9147 H       1  LIG1        0.0000
     43 H           1.1551    3.1015    0.0106 H       1  LIG1        0.0000
     44 H           3.2435    1.9248   -0.0142 H       1  LIG1        0.0000
     45 H           2.8912   -2.4600    0.6585 H       1  LIG1        0.0000
     46 H           5.7300   -1.5761   -1.2433 H       1  LIG1        0.0000
     47 H           7.8280   -2.7304   -1.2784 H       1  LIG1        0.0000
     48 H          11.0554   -5.4428    0.3849 H       1  LIG1        0.0000
     49 H          10.6144   -6.3437    1.6735 H       1  LIG1        0.0000
     50 H          12.5969   -5.3690    2.2777 H       1  LIG1        0.0000
     51 H          12.1338   -3.9124    1.7027 H       1  LIG1        0.0000
     52 H          11.0310   -5.1524    4.0782 H       1  LIG1        0.0000
     53 H          12.1533   -3.3536    5.1903 H       1  LIG1        0.0000
     54 H          13.2499   -4.2238    4.3495 H       1  LIG1        0.0000
     55 H          12.7060   -2.8032    3.7556 H       1  LIG1        0.0000
     56 H          10.5356   -2.5634    2.8738 H       1  LIG1        0.0000
     57 H           9.8622   -3.0707    4.2723 H       1  LIG1        0.0000
     58 H           8.5208   -4.5759    3.1933 H       1  LIG1        0.0000
     59 H           8.4173   -3.2087    2.3063 H       1  LIG1        0.0000
     60 H           6.5916   -5.1026    1.8897 H       1  LIG1        0.0000
     61 H           4.4955   -4.8385    2.8425 H       1  LIG1        0.0000
     62 H           3.9306   -3.3065    2.8593 H       1  LIG1        0.0000
     63 H           3.3153   -4.3921    1.8060 H       1  LIG1        0.0000
     64 H           1.2167   -1.6890   -0.0244 H       1  LIG1        0.0000
     65 H          -0.8764   -0.5199    0.0045 H       1  LIG1        0.0000
     66 H          -3.3930    0.4786   -1.9966 H       1  LIG1        0.0000
     67 H          -1.8019    0.5835   -2.3488 H       1  LIG1        0.0000
     68 H          -2.3018   -0.3364   -1.0956 H       1  LIG1        0.0000
@<TRIPOS>BOND
     1     1     2    1
     2     2     3    1
     3     3     4    1
     4     4     5    2
     5     4     6    1
     6     6     7    1
     7     7     8    2
     8     8     9    1
     9     9    10    1
    10    10    11   ar
    11    11    12   ar
    12    12    13   ar
    13    13    14    1
    14    14    15    2
    15    14    16   am
    16    16    17    1
    17    17    18   ar
    18    18    19   ar
    19    19    20   ar
    20    20    21    1
    21    21    22    2
    22    21    23   am
    23    23    24    1
    24    24    25    1
    25    25    26    1
    26    26    27    1
    27    26    28    1
    28    28    29    1
    29    29    23    1
    30    20    30   ar
    31    30    31   ar
    32    31    17   ar
    33    31    32    1
    34    13    33   ar
    35    33    34   ar
    36    34    10   ar
    37     9    35    1
    38    35     6    2
    39    35    36    1
    40     1    37    1
    41     1    38    1
    42     1    39    1
    43     2    40    1
    44     2    41    1
    45     7    42    1
    46    11    43    1
    47    12    44    1
    48    16    45    1
    49    18    46    1
    50    19    47    1
    51    24    48    1
    52    24    49    1
    53    25    50    1
    54    25    51    1
    55    26    52    1
    56    27    53    1
    57    27    54    1
    58    27    55    1
    59    28    56    1
    60    28    57    1
    61    29    58    1
    62    29    59    1
    63    30    60    1
    64    32    61    1
    65    32    62    1
    66    32    63    1
    67    33    64    1
    68    34    65    1
    69    36    66    1
    70    36    67    1
    71    36    68    1
