@<TRIPOS>MOLECULE
*****
 68 71 0 0 0
SMALL
USER_CHARGES

@<TRIPOS>ATOM
      1 C1         -6.8539    6.0465   -0.7375 C.3     1  LIG1        0.0000
      2 C2         -5.4788    5.8415   -1.3519 C.3     1  LIG1        0.0000
      3 O3         -4.8065    4.7939   -0.6686 O.3     1  LIG1        0.0000
      4 C4         -3.6029    4.5171   -1.1053 C.2     1  LIG1        0.0000
      5 O5         -3.1413    5.1349   -2.0247 O.2     1  LIG1        0.0000
      6 C6         -2.8288    3.4647   -0.4783 C.2     1  LIG1        0.0000
      7 C7         -3.2383    2.6501    0.6008 C.2     1  LIG1        0.0000
      8 N8         -2.2398    1.8393    0.8441 N.2     1  LIG1        0.0000
      9 N9         -1.2406    2.0627    0.0249 N.pl3   1  LIG1        0.0000
     10 C10        -0.0164    1.3781    0.0095 C.3     1  LIG1        0.0000
     11 C11         1.1713    2.1017    0.0040 C.3     1  LIG1        0.0000
     12 C12         2.3819    1.4172   -0.0109 C.3     1  LIG1        0.0000
     13 C13         2.3938    0.0256   -0.0213 C.3     1  LIG1        0.0000
     14 C14         3.6615   -0.6793   -0.0364 C.2     1  LIG1        0.0000
     15 O15         4.6577   -0.1148   -0.3954 O.2     1  LIG1        0.0000
     16 N16         3.7214   -1.9896    0.3593 N.am    1  LIG1        0.0000
     17 C17         4.9452   -2.6701    0.3448 C.3     1  LIG1        0.0000
     18 C18         5.0805   -3.8070   -0.4448 C.3     1  LIG1        0.0000
     19 C19         6.2936   -4.4876   -0.4643 C.3     1  LIG1        0.0000
     20 C20         7.3593   -4.0308    0.3027 C.3     1  LIG1        0.0000
     21 C21         8.6223   -4.7430    0.2811 C.2     1  LIG1        0.0000
     22 O22         8.6693   -5.8917    0.6250 O.2     1  LIG1        0.0000
     23 N23         9.7849   -4.0914   -0.1402 N.am    1  LIG1        0.0000
     24 C24        11.0452   -4.8511   -0.1466 C.3     1  LIG1        0.0000
     25 C25        11.9748   -4.4001   -1.2651 C.3     1  LIG1        0.0000
     26 C26        12.0858   -2.8848   -1.3555 C.3     1  LIG1        0.0000
     27 C27        12.9693   -2.5516   -2.5473 C.3     1  LIG1        0.0000
     28 C28        10.6935   -2.3444   -1.6530 C.3     1  LIG1        0.0000
     29 C29         9.6894   -2.6836   -0.5606 C.3     1  LIG1        0.0000
     30 C30         7.2284   -2.8942    1.0937 C.3     1  LIG1        0.0000
     31 C31         6.0140   -2.2158    1.1107 C.3     1  LIG1        0.0000
     32 C32         5.8738   -0.9747    1.9767 C.3     1  LIG1        0.0000
     33 C33         1.2008   -0.6892   -0.0164 C.3     1  LIG1        0.0000
     34 C34        -0.0146   -0.0125   -0.0002 C.3     1  LIG1        0.0000
     35 C35        -1.5790    3.0717   -0.8221 C.2     1  LIG1        0.0000
     36 C36        -0.7176    3.6472   -1.9325 C.3     1  LIG1        0.0000
     37 H          -7.3274    6.7843   -1.2187 H       1  LIG1        0.0000
     38 H          -7.3840    5.2023   -0.8175 H       1  LIG1        0.0000
     39 H          -6.7550    6.2879    0.2279 H       1  LIG1        0.0000
     40 H          -5.5777    5.6002   -2.3173 H       1  LIG1        0.0000
     41 H          -4.9488    6.6857   -1.2720 H       1  LIG1        0.0000
     42 H          -4.1143    2.6857    1.0818 H       1  LIG1        0.0000
     43 H           1.1551    3.1015    0.0106 H       1  LIG1        0.0000
     44 H           3.2435    1.9248   -0.0142 H       1  LIG1        0.0000
     45 H           2.8912   -2.4600    0.6585 H       1  LIG1        0.0000
     46 H           4.3113   -4.1328   -0.9945 H       1  LIG1        0.0000
     47 H           6.3990   -5.3055   -1.0300 H       1  LIG1        0.0000
     48 H          10.8372   -5.8213   -0.2707 H       1  LIG1        0.0000
     49 H          11.5068   -4.7187    0.7305 H       1  LIG1        0.0000
     50 H          12.8851   -4.7788   -1.0978 H       1  LIG1        0.0000
     51 H          11.6235   -4.7483   -2.1341 H       1  LIG1        0.0000
     52 H          12.4535   -2.4963   -0.5106 H       1  LIG1        0.0000
     53 H          13.0584   -1.5590   -2.6290 H       1  LIG1        0.0000
     54 H          13.8736   -2.9578   -2.4158 H       1  LIG1        0.0000
     55 H          12.5569   -2.9190   -3.3810 H       1  LIG1        0.0000
     56 H          10.3744   -2.7382   -2.5150 H       1  LIG1        0.0000
     57 H          10.7478   -1.3498   -1.7407 H       1  LIG1        0.0000
     58 H           9.8636   -2.0979    0.2310 H       1  LIG1        0.0000
     59 H           8.7667   -2.5118   -0.9058 H       1  LIG1        0.0000
     60 H           7.9977   -2.5688    1.6435 H       1  LIG1        0.0000
     61 H           6.7363   -0.8005    2.4518 H       1  LIG1        0.0000
     62 H           5.6463   -0.1899    1.4002 H       1  LIG1        0.0000
     63 H           5.1464   -1.1171    2.6480 H       1  LIG1        0.0000
     64 H           1.2167   -1.6890   -0.0244 H       1  LIG1        0.0000
     65 H          -0.8764   -0.5199    0.0045 H       1  LIG1        0.0000
     66 H          -1.2168    4.3793   -2.3961 H       1  LIG1        0.0000
     67 H           0.1269    4.0146   -1.5428 H       1  LIG1        0.0000
     68 H          -0.4958    2.9269   -2.5896 H       1  LIG1        0.0000
@<TRIPOS>BOND
     1     1     2    1
     2     2     3    1
     3     3     4    1
     4     4     5    2
     5     4     6    1
     6     6     7    1
     7     7     8    2
     8     8     9    1
     9     9    10    1
    10    10    11   ar
    11    11    12   ar
    12    12    13   ar
    13    13    14    1
    14    14    15    2
    15    14    16   am
    16    16    17    1
    17    17    18   ar
    18    18    19   ar
    19    19    20   ar
    20    20    21    1
    21    21    22    2
    22    21    23   am
    23    23    24    1
    24    24    25    1
    25    25    26    1
    26    26    27    1
    27    26    28    1
    28    28    29    1
    29    29    23    1
    30    20    30   ar
    31    30    31   ar
    32    31    17   ar
    33    31    32    1
    34    13    33   ar
    35    33    34   ar
    36    34    10   ar
    37     9    35    1
    38    35     6    2
    39    35    36    1
    40     1    37    1
    41     1    38    1
    42     1    39    1
    43     2    40    1
    44     2    41    1
    45     7    42    1
    46    11    43    1
    47    12    44    1
    48    16    45    1
    49    18    46    1
    50    19    47    1
    51    24    48    1
    52    24    49    1
    53    25    50    1
    54    25    51    1
    55    26    52    1
    56    27    53    1
    57    27    54    1
    58    27    55    1
    59    28    56    1
    60    28    57    1
    61    29    58    1
    62    29    59    1
    63    30    60    1
    64    32    61    1
    65    32    62    1
    66    32    63    1
    67    33    64    1
    68    34    65    1
    69    36    66    1
    70    36    67    1
    71    36    68    1
