@<TRIPOS>MOLECULE

  61   65
SMALL
USER_CHARGES
@<TRIPOS>ATOM
   1 O1           0.2003     3.0725     0.2003 O.2          1    LIG   0.0000
   2 C2           0.1224     1.8776     0.1224 C.2          1    LIG   0.0000
   3 C3           1.0000     1.0000     1.0000 C.3          1    LIG   0.0000
   4 C4           1.8776     1.8776     1.8776 C.2          1    LIG   0.0000
   5 C5           3.1721     1.7932     1.7932 C.2          1    LIG   0.0000
   6 C6           4.0096     2.6307     2.6307 C.ar         1    LIG   0.0000
   7 C7           3.9119     4.0155     2.5331 C.ar         1    LIG   0.0000
   8 C8           4.7112     4.8266     3.3316 C.ar         1    LIG   0.0000
   9 C9           5.6025     4.2353     4.2206 C.ar         1    LIG   0.0000
  10 N10          6.4101     5.0464     5.0270 N.2          1    LIG   1.0000
  11 O11          7.1890     4.5427     5.8041 O.co2        1    LIG   0.0000
  12 O12          6.3286     6.2610     4.9462 O.co2        1    LIG  -1.0000
  13 C13          5.7076     2.8524     4.3249 C.ar         1    LIG   0.0000
  14 C14          4.9034     2.0487     3.5232 C.ar         1    LIG   0.0000
  15 C15          1.2697     2.8106     2.8106 C.2          1    LIG   0.0000
  16 N16          1.8719     3.6349     3.6347 N.2          1    LIG   0.0000
  17 C17          1.0581     4.4195     4.4188 C.ar         1    LIG   0.0000
  18 C18          1.3127     5.3905     5.3834 C.ar         1    LIG   0.0000
  19 C19          0.2849     6.0554     6.0465 C.ar         1    LIG   0.0000
  20 C20         -1.0523     5.7792     5.7735 C.ar         1    LIG   0.0000
  21 C21         -1.3671     4.8232     4.8219 C.ar         1    LIG   0.0000
  22 C22         -0.2857     4.2103     4.2120 C.ar         1    LIG   0.0000
  23 S23         -0.4081     3.0119     3.0119 S.3          1    LIG   0.0000
  24 N24         -0.7763     1.2920    -0.7763 N.am         1    LIG   0.0000
  25 C25         -1.6103     2.1722    -1.6103 C.3          1    LIG   0.0000
  26 C26         -1.8910     1.5508    -2.9713 C.3          1    LIG   0.0000
  27 N27         -2.2788     0.1346    -2.8677 N.3          1    LIG   0.0000
  28 C28         -2.4724    -0.3635    -4.2375 C.3          1    LIG   0.0000
  29 C29         -3.7209     0.2662    -4.8339 C.ar         1    LIG   0.0000
  30 C30         -3.5876     1.4659    -5.5249 C.ar         1    LIG   0.0000
  31 C31         -4.7250     2.0479    -6.0739 C.ar         1    LIG   0.0000
  32 C32         -5.9625     1.4312    -5.9250 C.ar         1    LIG   0.0000
  33 C33         -6.0280     0.2324    -5.2227 C.ar         1    LIG   0.0000
  34 N34         -4.9216    -0.3165    -4.7000 N.ar         1    LIG   0.0000
  35 C35         -1.1774    -0.6410    -2.2736 C.3          1    LIG   0.0000
  36 C36         -0.8419    -0.1759    -0.8640 C.3          1    LIG   0.0000
  37 H            0.4226     0.4226     1.5774 H            1    LIG   0.0000
  38 H            1.5774     0.4226     0.4226 H            1    LIG   0.0000
  39 H            3.5905     1.1510     1.1510 H            1    LIG   0.0000
  40 H            3.2673     4.4273     1.8889 H            1    LIG   0.0000
  41 H            4.6458     5.8223     3.2675 H            1    LIG   0.0000
  42 H            6.3533     2.4409     4.9681 H            1    LIG   0.0000
  43 H            4.9680     1.0529     3.5886 H            1    LIG   0.0000
  44 H            2.2609     5.6168     5.6064 H            1    LIG   0.0000
  45 H            0.5117     6.7459     6.7333 H            1    LIG   0.0000
  46 H           -1.7780     6.2661     6.2596 H            1    LIG   0.0000
  47 H           -2.3120     4.5913     4.5908 H            1    LIG   0.0000
  48 H           -1.1341     3.0416    -1.7421 H            1    LIG   0.0000
  49 H           -2.4789     2.3355    -1.1424 H            1    LIG   0.0000
  50 H           -2.6341     2.0569    -3.4091 H            1    LIG   0.0000
  51 H           -1.0659     1.6185    -3.5323 H            1    LIG   0.0000
  52 H           -2.5769    -1.3579    -4.2190 H            1    LIG   0.0000
  53 H           -1.6783    -0.1221    -4.7954 H            1    LIG   0.0000
  54 H           -2.6927     1.9007    -5.6248 H            1    LIG   0.0000
  55 H           -4.6530     2.9099    -6.5757 H            1    LIG   0.0000
  56 H           -6.7875     1.8407    -6.3145 H            1    LIG   0.0000
  57 H           -6.9095    -0.2251    -5.1063 H            1    LIG   0.0000
  58 H           -0.3653    -0.5392    -2.8481 H            1    LIG   0.0000
  59 H           -1.4434    -1.6044    -2.2400 H            1    LIG   0.0000
  60 H           -1.5471    -0.5068    -0.2371 H            1    LIG   0.0000
  61 H            0.0443    -0.5562    -0.5996 H            1    LIG   0.0000
@<TRIPOS>BOND
   1        1        2 2
   2        2        3 1
   3        3        4 1
   4        4        5 2
   5        5        6 1
   6        6        7 ar
   7        7        8 ar
   8        8        9 ar
   9        9       10 1
  10       10       11 ar
  11       10       12 ar
  12        9       13 ar
  13       13       14 ar
  14       14        6 ar
  15        4       15 1
  16       15       16 2
  17       16       17 1
  18       17       18 ar
  19       18       19 ar
  20       19       20 ar
  21       20       21 ar
  22       21       22 ar
  23       22       17 ar
  24       22       23 1
  25       23       15 1
  26        2       24 am
  27       24       25 1
  28       25       26 1
  29       26       27 1
  30       27       28 1
  31       28       29 1
  32       29       30 ar
  33       30       31 ar
  34       31       32 ar
  35       32       33 ar
  36       33       34 ar
  37       34       29 ar
  38       27       35 1
  39       35       36 1
  40       36       24 1
  41        3       37 1
  42        3       38 1
  43        5       39 1
  44        7       40 1
  45        8       41 1
  46       13       42 1
  47       14       43 1
  48       18       44 1
  49       19       45 1
  50       20       46 1
  51       21       47 1
  52       25       48 1
  53       25       49 1
  54       26       50 1
  55       26       51 1
  56       28       52 1
  57       28       53 1
  58       30       54 1
  59       31       55 1
  60       32       56 1
  61       33       57 1
  62       35       58 1
  63       35       59 1
  64       36       60 1
  65       36       61 1

@<TRIPOS>MOLECULE

  61   65
SMALL
USER_CHARGES
@<TRIPOS>ATOM
   1 O1           0.2003     3.0725     0.2003 O.2          1    LIG   0.0000
   2 C2           0.1224     1.8776     0.1224 C.2          1    LIG   0.0000
   3 C3           1.0000     1.0000     1.0000 C.3          1    LIG   0.0000
   4 C4           1.8776     1.8776     1.8776 C.2          1    LIG   0.0000
   5 C5           3.1721     1.7932     1.7932 C.2          1    LIG   0.0000
   6 C6           4.0096     2.6307     2.6307 C.ar         1    LIG   0.0000
   7 C7           3.9119     4.0155     2.5331 C.ar         1    LIG   0.0000
   8 C8           4.7112     4.8266     3.3316 C.ar         1    LIG   0.0000
   9 C9           5.6025     4.2353     4.2206 C.ar         1    LIG   0.0000
  10 N10          6.4101     5.0464     5.0270 N.2          1    LIG   1.0000
  11 O11          7.1890     4.5427     5.8041 O.co2        1    LIG   0.0000
  12 O12          6.3286     6.2610     4.9462 O.co2        1    LIG  -1.0000
  13 C13          5.7076     2.8524     4.3249 C.ar         1    LIG   0.0000
  14 C14          4.9034     2.0487     3.5232 C.ar         1    LIG   0.0000
  15 C15          1.2697     2.8106     2.8106 C.2          1    LIG   0.0000
  16 N16          1.8719     3.6349     3.6347 N.2          1    LIG   0.0000
  17 C17          1.0581     4.4195     4.4188 C.ar         1    LIG   0.0000
  18 C18          1.3127     5.3905     5.3834 C.ar         1    LIG   0.0000
  19 C19          0.2849     6.0554     6.0465 C.ar         1    LIG   0.0000
  20 C20         -1.0523     5.7792     5.7735 C.ar         1    LIG   0.0000
  21 C21         -1.3671     4.8232     4.8219 C.ar         1    LIG   0.0000
  22 C22         -0.2857     4.2103     4.2120 C.ar         1    LIG   0.0000
  23 S23         -0.4081     3.0119     3.0119 S.3          1    LIG   0.0000
  24 N24         -0.7763     1.2920    -0.7763 N.am         1    LIG   0.0000
  25 C25         -1.6103     2.1722    -1.6103 C.3          1    LIG   0.0000
  26 C26         -1.8910     1.5508    -2.9713 C.3          1    LIG   0.0000
  27 N27         -2.2788     0.1346    -2.8677 N.3          1    LIG   0.0000
  28 C28         -2.4724    -0.3635    -4.2375 C.3          1    LIG   0.0000
  29 C29         -1.1269    -0.4519    -4.9395 C.ar         1    LIG   0.0000
  30 C30         -0.4112    -1.6406    -4.8443 C.ar         1    LIG   0.0000
  31 C31          0.8202    -1.7295    -5.4841 C.ar         1    LIG   0.0000
  32 C32          1.3122    -0.6429    -6.1992 C.ar         1    LIG   0.0000
  33 C33          0.5473     0.5173    -6.2558 C.ar         1    LIG   0.0000
  34 N34         -0.6389     0.5869    -5.6339 N.ar         1    LIG   0.0000
  35 C35         -1.1774    -0.6410    -2.2736 C.3          1    LIG   0.0000
  36 C36         -0.8419    -0.1759    -0.8640 C.3          1    LIG   0.0000
  37 H            0.4226     0.4226     1.5774 H            1    LIG   0.0000
  38 H            1.5774     0.4226     0.4226 H            1    LIG   0.0000
  39 H            3.5905     1.1510     1.1510 H            1    LIG   0.0000
  40 H            3.2673     4.4273     1.8889 H            1    LIG   0.0000
  41 H            4.6458     5.8223     3.2675 H            1    LIG   0.0000
  42 H            6.3533     2.4409     4.9681 H            1    LIG   0.0000
  43 H            4.9680     1.0529     3.5886 H            1    LIG   0.0000
  44 H            2.2609     5.6168     5.6064 H            1    LIG   0.0000
  45 H            0.5117     6.7459     6.7333 H            1    LIG   0.0000
  46 H           -1.7780     6.2661     6.2596 H            1    LIG   0.0000
  47 H           -2.3120     4.5913     4.5908 H            1    LIG   0.0000
  48 H           -1.1341     3.0416    -1.7421 H            1    LIG   0.0000
  49 H           -2.4789     2.3355    -1.1424 H            1    LIG   0.0000
  50 H           -2.6341     2.0569    -3.4091 H            1    LIG   0.0000
  51 H           -1.0659     1.6185    -3.5323 H            1    LIG   0.0000
  52 H           -3.0694     0.2629    -4.7388 H            1    LIG   0.0000
  53 H           -2.8922    -1.2706    -4.2062 H            1    LIG   0.0000
  54 H           -0.7746    -2.4152    -4.3265 H            1    LIG   0.0000
  55 H            1.3519    -2.5747    -5.4301 H            1    LIG   0.0000
  56 H            2.1969    -0.6947    -6.6626 H            1    LIG   0.0000
  57 H            0.8855     1.3083    -6.7657 H            1    LIG   0.0000
  58 H           -0.3653    -0.5392    -2.8481 H            1    LIG   0.0000
  59 H           -1.4434    -1.6044    -2.2400 H            1    LIG   0.0000
  60 H           -1.5471    -0.5068    -0.2371 H            1    LIG   0.0000
  61 H            0.0443    -0.5562    -0.5996 H            1    LIG   0.0000
@<TRIPOS>BOND
   1        1        2 2
   2        2        3 1
   3        3        4 1
   4        4        5 2
   5        5        6 1
   6        6        7 ar
   7        7        8 ar
   8        8        9 ar
   9        9       10 1
  10       10       11 ar
  11       10       12 ar
  12        9       13 ar
  13       13       14 ar
  14       14        6 ar
  15        4       15 1
  16       15       16 2
  17       16       17 1
  18       17       18 ar
  19       18       19 ar
  20       19       20 ar
  21       20       21 ar
  22       21       22 ar
  23       22       17 ar
  24       22       23 1
  25       23       15 1
  26        2       24 am
  27       24       25 1
  28       25       26 1
  29       26       27 1
  30       27       28 1
  31       28       29 1
  32       29       30 ar
  33       30       31 ar
  34       31       32 ar
  35       32       33 ar
  36       33       34 ar
  37       34       29 ar
  38       27       35 1
  39       35       36 1
  40       36       24 1
  41        3       37 1
  42        3       38 1
  43        5       39 1
  44        7       40 1
  45        8       41 1
  46       13       42 1
  47       14       43 1
  48       18       44 1
  49       19       45 1
  50       20       46 1
  51       21       47 1
  52       25       48 1
  53       25       49 1
  54       26       50 1
  55       26       51 1
  56       28       52 1
  57       28       53 1
  58       30       54 1
  59       31       55 1
  60       32       56 1
  61       33       57 1
  62       35       58 1
  63       35       59 1
  64       36       60 1
  65       36       61 1

@<TRIPOS>MOLECULE

  61   65
SMALL
USER_CHARGES
@<TRIPOS>ATOM
   1 O1           0.2003     3.0725     0.2003 O.2          1    LIG   0.0000
   2 C2           0.1224     1.8776     0.1224 C.2          1    LIG   0.0000
   3 C3           1.0000     1.0000     1.0000 C.3          1    LIG   0.0000
   4 C4           1.8776     1.8776     1.8776 C.2          1    LIG   0.0000
   5 C5           3.1721     1.7932     1.7932 C.2          1    LIG   0.0000
   6 C6           4.0096     2.6307     2.6307 C.ar         1    LIG   0.0000
   7 C7           3.9119     4.0155     2.5331 C.ar         1    LIG   0.0000
   8 C8           4.7112     4.8266     3.3316 C.ar         1    LIG   0.0000
   9 C9           5.6025     4.2353     4.2206 C.ar         1    LIG   0.0000
  10 N10          6.4101     5.0464     5.0270 N.2          1    LIG   1.0000
  11 O11          7.1890     4.5427     5.8041 O.co2        1    LIG   0.0000
  12 O12          6.3286     6.2610     4.9462 O.co2        1    LIG  -1.0000
  13 C13          5.7076     2.8524     4.3249 C.ar         1    LIG   0.0000
  14 C14          4.9034     2.0487     3.5232 C.ar         1    LIG   0.0000
  15 C15          1.2697     2.8106     2.8106 C.2          1    LIG   0.0000
  16 N16          1.8719     3.6349     3.6347 N.2          1    LIG   0.0000
  17 C17          1.0581     4.4195     4.4188 C.ar         1    LIG   0.0000
  18 C18          1.3127     5.3905     5.3834 C.ar         1    LIG   0.0000
  19 C19          0.2849     6.0554     6.0465 C.ar         1    LIG   0.0000
  20 C20         -1.0523     5.7792     5.7735 C.ar         1    LIG   0.0000
  21 C21         -1.3671     4.8232     4.8219 C.ar         1    LIG   0.0000
  22 C22         -0.2857     4.2103     4.2120 C.ar         1    LIG   0.0000
  23 S23         -0.4081     3.0119     3.0119 S.3          1    LIG   0.0000
  24 N24         -0.7763     1.2920    -0.7763 N.am         1    LIG   0.0000
  25 C25         -0.8452    -0.1764    -0.8452 C.3          1    LIG   0.0000
  26 C26         -2.2527    -0.6550    -1.1724 C.3          1    LIG   0.0000
  27 N27         -2.8606     0.1126    -2.2716 N.3          1    LIG   0.0000
  28 C28         -4.2243    -0.4040    -2.4592 C.3          1    LIG   0.0000
  29 C29         -4.1593    -1.8047    -3.0462 C.ar         1    LIG   0.0000
  30 C30         -4.1078    -2.8841    -2.1706 C.ar         1    LIG   0.0000
  31 C31         -4.0488    -4.1686    -2.6998 C.ar         1    LIG   0.0000
  32 C32         -4.0408    -4.3530    -4.0782 C.ar         1    LIG   0.0000
  33 C33         -4.0942    -3.2317    -4.8995 C.ar         1    LIG   0.0000
  34 N34         -4.1518    -1.9995    -4.3734 N.ar         1    LIG   0.0000
  35 C35         -2.9801     1.5279    -1.8839 C.3          1    LIG   0.0000
  36 C36         -1.6261     2.1635    -1.6040 C.3          1    LIG   0.0000
  37 H            0.4226     0.4226     1.5774 H            1    LIG   0.0000
  38 H            1.5774     0.4226     0.4226 H            1    LIG   0.0000
  39 H            3.5905     1.1510     1.1510 H            1    LIG   0.0000
  40 H            3.2673     4.4273     1.8889 H            1    LIG   0.0000
  41 H            4.6458     5.8223     3.2675 H            1    LIG   0.0000
  42 H            6.3533     2.4409     4.9681 H            1    LIG   0.0000
  43 H            4.9680     1.0529     3.5886 H            1    LIG   0.0000
  44 H            2.2609     5.6168     5.6064 H            1    LIG   0.0000
  45 H            0.5117     6.7459     6.7333 H            1    LIG   0.0000
  46 H           -1.7780     6.2661     6.2596 H            1    LIG   0.0000
  47 H           -2.3120     4.5913     4.5908 H            1    LIG   0.0000
  48 H           -0.5701    -0.5562     0.0380 H            1    LIG   0.0000
  49 H           -0.2194    -0.4979    -1.5559 H            1    LIG   0.0000
  50 H           -2.2118    -1.6185    -1.4368 H            1    LIG   0.0000
  51 H           -2.8236    -0.5570    -0.3572 H            1    LIG   0.0000
  52 H           -4.7252     0.1960    -3.0831 H            1    LIG   0.0000
  53 H           -4.6938    -0.4339    -1.5767 H            1    LIG   0.0000
  54 H           -4.1132    -2.7394    -1.1811 H            1    LIG   0.0000
  55 H           -4.0120    -4.9598    -2.0893 H            1    LIG   0.0000
  56 H           -3.9975    -5.2718    -4.4705 H            1    LIG   0.0000
  57 H           -4.0897    -3.3457    -5.8929 H            1    LIG   0.0000
  58 H           -3.5415     1.5894    -1.0587 H            1    LIG   0.0000
  59 H           -3.4236     2.0290    -2.6270 H            1    LIG   0.0000
  60 H           -1.1633     2.3365    -2.4734 H            1    LIG   0.0000
  61 H           -1.7676     3.0291    -1.1236 H            1    LIG   0.0000
@<TRIPOS>BOND
   1        1        2 2
   2        2        3 1
   3        3        4 1
   4        4        5 2
   5        5        6 1
   6        6        7 ar
   7        7        8 ar
   8        8        9 ar
   9        9       10 1
  10       10       11 ar
  11       10       12 ar
  12        9       13 ar
  13       13       14 ar
  14       14        6 ar
  15        4       15 1
  16       15       16 2
  17       16       17 1
  18       17       18 ar
  19       18       19 ar
  20       19       20 ar
  21       20       21 ar
  22       21       22 ar
  23       22       17 ar
  24       22       23 1
  25       23       15 1
  26        2       24 am
  27       24       25 1
  28       25       26 1
  29       26       27 1
  30       27       28 1
  31       28       29 1
  32       29       30 ar
  33       30       31 ar
  34       31       32 ar
  35       32       33 ar
  36       33       34 ar
  37       34       29 ar
  38       27       35 1
  39       35       36 1
  40       36       24 1
  41        3       37 1
  42        3       38 1
  43        5       39 1
  44        7       40 1
  45        8       41 1
  46       13       42 1
  47       14       43 1
  48       18       44 1
  49       19       45 1
  50       20       46 1
  51       21       47 1
  52       25       48 1
  53       25       49 1
  54       26       50 1
  55       26       51 1
  56       28       52 1
  57       28       53 1
  58       30       54 1
  59       31       55 1
  60       32       56 1
  61       33       57 1
  62       35       58 1
  63       35       59 1
  64       36       60 1
  65       36       61 1

@<TRIPOS>MOLECULE

  61   65
SMALL
USER_CHARGES
@<TRIPOS>ATOM
   1 O1           0.2003     3.0725     0.2003 O.2          1    LIG   0.0000
   2 C2           0.1224     1.8776     0.1224 C.2          1    LIG   0.0000
   3 C3           1.0000     1.0000     1.0000 C.3          1    LIG   0.0000
   4 C4           1.8776     1.8776     1.8776 C.2          1    LIG   0.0000
   5 C5           3.1721     1.7932     1.7932 C.2          1    LIG   0.0000
   6 C6           4.0096     2.6307     2.6307 C.ar         1    LIG   0.0000
   7 C7           3.9119     4.0155     2.5331 C.ar         1    LIG   0.0000
   8 C8           4.7112     4.8266     3.3316 C.ar         1    LIG   0.0000
   9 C9           5.6025     4.2353     4.2206 C.ar         1    LIG   0.0000
  10 N10          6.4101     5.0464     5.0270 N.2          1    LIG   1.0000
  11 O11          7.1890     4.5427     5.8041 O.co2        1    LIG   0.0000
  12 O12          6.3286     6.2610     4.9462 O.co2        1    LIG  -1.0000
  13 C13          5.7076     2.8524     4.3249 C.ar         1    LIG   0.0000
  14 C14          4.9034     2.0487     3.5232 C.ar         1    LIG   0.0000
  15 C15          1.2697     2.8106     2.8106 C.2          1    LIG   0.0000
  16 N16          1.8719     3.6349     3.6347 N.2          1    LIG   0.0000
  17 C17          1.0581     4.4195     4.4188 C.ar         1    LIG   0.0000
  18 C18          1.3127     5.3905     5.3834 C.ar         1    LIG   0.0000
  19 C19          0.2849     6.0554     6.0465 C.ar         1    LIG   0.0000
  20 C20         -1.0523     5.7792     5.7735 C.ar         1    LIG   0.0000
  21 C21         -1.3671     4.8232     4.8219 C.ar         1    LIG   0.0000
  22 C22         -0.2857     4.2103     4.2120 C.ar         1    LIG   0.0000
  23 S23         -0.4081     3.0119     3.0119 S.3          1    LIG   0.0000
  24 N24         -0.7763     1.2920    -0.7763 N.am         1    LIG   0.0000
  25 C25         -0.8452    -0.1764    -0.8452 C.3          1    LIG   0.0000
  26 C26         -2.2527    -0.6550    -1.1724 C.3          1    LIG   0.0000
  27 N27         -2.8606     0.1126    -2.2716 N.3          1    LIG   0.0000
  28 C28         -4.2243    -0.4040    -2.4592 C.3          1    LIG   0.0000
  29 C29         -5.0865    -0.0007    -1.2739 C.ar         1    LIG   0.0000
  30 C30         -5.7721     1.2076    -1.3391 C.ar         1    LIG   0.0000
  31 C31         -6.5633     1.5833    -0.2590 C.ar         1    LIG   0.0000
  32 C32         -6.6553     0.7573     0.8561 C.ar         1    LIG   0.0000
  33 C33         -5.9445    -0.4381     0.8586 C.ar         1    LIG   0.0000
  34 N34         -5.1865    -0.7866    -0.1914 N.ar         1    LIG   0.0000
  35 C35         -2.9801     1.5279    -1.8839 C.3          1    LIG   0.0000
  36 C36         -1.6261     2.1635    -1.6040 C.3          1    LIG   0.0000
  37 H            0.4226     0.4226     1.5774 H            1    LIG   0.0000
  38 H            1.5774     0.4226     0.4226 H            1    LIG   0.0000
  39 H            3.5905     1.1510     1.1510 H            1    LIG   0.0000
  40 H            3.2673     4.4273     1.8889 H            1    LIG   0.0000
  41 H            4.6458     5.8223     3.2675 H            1    LIG   0.0000
  42 H            6.3533     2.4409     4.9681 H            1    LIG   0.0000
  43 H            4.9680     1.0529     3.5886 H            1    LIG   0.0000
  44 H            2.2609     5.6168     5.6064 H            1    LIG   0.0000
  45 H            0.5117     6.7459     6.7333 H            1    LIG   0.0000
  46 H           -1.7780     6.2661     6.2596 H            1    LIG   0.0000
  47 H           -2.3120     4.5913     4.5908 H            1    LIG   0.0000
  48 H           -0.5701    -0.5562     0.0380 H            1    LIG   0.0000
  49 H           -0.2194    -0.4979    -1.5559 H            1    LIG   0.0000
  50 H           -2.2118    -1.6185    -1.4368 H            1    LIG   0.0000
  51 H           -2.8236    -0.5570    -0.3572 H            1    LIG   0.0000
  52 H           -4.1966    -1.4013    -2.5272 H            1    LIG   0.0000
  53 H           -4.6125    -0.0233    -3.2985 H            1    LIG   0.0000
  54 H           -5.6977     1.7939    -2.1458 H            1    LIG   0.0000
  55 H           -7.0662     2.4473    -0.2841 H            1    LIG   0.0000
  56 H           -7.2203     1.0174     1.6392 H            1    LIG   0.0000
  57 H           -5.9993    -1.0444     1.6519 H            1    LIG   0.0000
  58 H           -3.5415     1.5894    -1.0587 H            1    LIG   0.0000
  59 H           -3.4236     2.0290    -2.6270 H            1    LIG   0.0000
  60 H           -1.1633     2.3365    -2.4734 H            1    LIG   0.0000
  61 H           -1.7676     3.0291    -1.1236 H            1    LIG   0.0000
@<TRIPOS>BOND
   1        1        2 2
   2        2        3 1
   3        3        4 1
   4        4        5 2
   5        5        6 1
   6        6        7 ar
   7        7        8 ar
   8        8        9 ar
   9        9       10 1
  10       10       11 ar
  11       10       12 ar
  12        9       13 ar
  13       13       14 ar
  14       14        6 ar
  15        4       15 1
  16       15       16 2
  17       16       17 1
  18       17       18 ar
  19       18       19 ar
  20       19       20 ar
  21       20       21 ar
  22       21       22 ar
  23       22       17 ar
  24       22       23 1
  25       23       15 1
  26        2       24 am
  27       24       25 1
  28       25       26 1
  29       26       27 1
  30       27       28 1
  31       28       29 1
  32       29       30 ar
  33       30       31 ar
  34       31       32 ar
  35       32       33 ar
  36       33       34 ar
  37       34       29 ar
  38       27       35 1
  39       35       36 1
  40       36       24 1
  41        3       37 1
  42        3       38 1
  43        5       39 1
  44        7       40 1
  45        8       41 1
  46       13       42 1
  47       14       43 1
  48       18       44 1
  49       19       45 1
  50       20       46 1
  51       21       47 1
  52       25       48 1
  53       25       49 1
  54       26       50 1
  55       26       51 1
  56       28       52 1
  57       28       53 1
  58       30       54 1
  59       31       55 1
  60       32       56 1
  61       33       57 1
  62       35       58 1
  63       35       59 1
  64       36       60 1
  65       36       61 1

@<TRIPOS>MOLECULE

  61   65
SMALL
USER_CHARGES
@<TRIPOS>ATOM
   1 O1           0.2003     3.0725     0.2003 O.2          1    LIG   0.0000
   2 C2           0.1224     1.8776     0.1224 C.2          1    LIG   0.0000
   3 C3           1.0000     1.0000     1.0000 C.3          1    LIG   0.0000
   4 C4           1.8776     1.8776     1.8776 C.2          1    LIG   0.0000
   5 C5           3.1721     1.7932     1.7932 C.2          1    LIG   0.0000
   6 C6           4.0096     2.6307     2.6307 C.ar         1    LIG   0.0000
   7 C7           3.9119     4.0155     2.5331 C.ar         1    LIG   0.0000
   8 C8           4.7112     4.8266     3.3316 C.ar         1    LIG   0.0000
   9 C9           5.6025     4.2353     4.2206 C.ar         1    LIG   0.0000
  10 N10          6.4101     5.0464     5.0270 N.2          1    LIG   1.0000
  11 O11          7.1890     4.5427     5.8041 O.co2        1    LIG   0.0000
  12 O12          6.3286     6.2610     4.9462 O.co2        1    LIG  -1.0000
  13 C13          5.7076     2.8524     4.3249 C.ar         1    LIG   0.0000
  14 C14          4.9034     2.0487     3.5232 C.ar         1    LIG   0.0000
  15 C15          1.2697     2.8106     2.8106 C.2          1    LIG   0.0000
  16 N16         -0.0075     3.0224     3.0226 N.2          1    LIG   0.0000
  17 C17         -0.3219     3.9692     3.9700 C.ar         1    LIG   0.0000
  18 C18         -1.5277     4.4581     4.4652 C.ar         1    LIG   0.0000
  19 C19         -1.5735     5.4411     5.4500 C.ar         1    LIG   0.0000
  20 C20         -0.4094     5.9830     5.9886 C.ar         1    LIG   0.0000
  21 C21          0.8205     5.5345     5.5359 C.ar         1    LIG   0.0000
  22 C22          0.7749     4.5575     4.5558 C.ar         1    LIG   0.0000
  23 S23          2.1435     3.8431     3.8431 S.3          1    LIG   0.0000
  24 N24         -0.7766     1.2918    -0.7766 N.am         1    LIG   0.0000
  25 C25         -1.6159     2.1621    -1.6159 C.3          1    LIG   0.0000
  26 C26         -2.9741     1.5343    -1.8938 C.3          1    LIG   0.0000
  27 N27         -2.8638     0.1149    -2.2714 N.3          1    LIG   0.0000
  28 C28         -4.2248    -0.4109    -2.4490 C.3          1    LIG   0.0000
  29 C29         -4.9136    -0.5010    -1.0969 C.ar         1    LIG   0.0000
  30 C30         -4.7891    -1.6813    -0.3718 C.ar         1    LIG   0.0000
  31 C31         -5.4159    -1.7714     0.8663 C.ar         1    LIG   0.0000
  32 C32         -6.1492    -0.6952     1.3543 C.ar         1    LIG   0.0000
  33 C33         -6.2348     0.4569     0.5799 C.ar         1    LIG   0.0000
  34 N34         -5.6238     0.5283    -0.6118 N.ar         1    LIG   0.0000
  35 C35         -2.2657    -0.6486    -1.1642 C.3          1    LIG   0.0000
  36 C36         -0.8552    -0.1762    -0.8414 C.3          1    LIG   0.0000
  37 H            0.4226     0.4226     1.5774 H            1    LIG   0.0000
  38 H            1.5774     0.4226     0.4226 H            1    LIG   0.0000
  39 H            3.5905     1.1510     1.1510 H            1    LIG   0.0000
  40 H            3.2673     4.4273     1.8889 H            1    LIG   0.0000
  41 H            4.6458     5.8223     3.2675 H            1    LIG   0.0000
  42 H            6.3533     2.4409     4.9681 H            1    LIG   0.0000
  43 H            4.9680     1.0529     3.5886 H            1    LIG   0.0000
  44 H           -2.3853     4.0928     4.1033 H            1    LIG   0.0000
  45 H           -2.4611     5.7649     5.7774 H            1    LIG   0.0000
  46 H           -0.4607     6.6887     6.6952 H            1    LIG   0.0000
  47 H            1.6833     5.8923     5.8929 H            1    LIG   0.0000
  48 H           -1.1488     2.3224    -2.4854 H            1    LIG   0.0000
  49 H           -1.7518     3.0337    -1.1448 H            1    LIG   0.0000
  50 H           -3.5365     1.6057    -1.0700 H            1    LIG   0.0000
  51 H           -3.4127     2.0333    -2.6412 H            1    LIG   0.0000
  52 H           -4.1795    -1.3208    -2.8614 H            1    LIG   0.0000
  53 H           -4.7430     0.2006    -3.0470 H            1    LIG   0.0000
  54 H           -4.2600    -2.4491    -0.7331 H            1    LIG   0.0000
  55 H           -5.3393    -2.6100     1.4057 H            1    LIG   0.0000
  56 H           -6.6051    -0.7486     2.2427 H            1    LIG   0.0000
  57 H           -6.7577     1.2406     0.9154 H            1    LIG   0.0000
  58 H           -2.2319    -1.6148    -1.4197 H            1    LIG   0.0000
  59 H           -2.8369    -0.5387    -0.3508 H            1    LIG   0.0000
  60 H           -0.5804    -0.5552     0.0422 H            1    LIG   0.0000
  61 H           -0.2328    -0.5034    -1.5525 H            1    LIG   0.0000
@<TRIPOS>BOND
   1        1        2 2
   2        2        3 1
   3        3        4 1
   4        4        5 2
   5        5        6 1
   6        6        7 ar
   7        7        8 ar
   8        8        9 ar
   9        9       10 1
  10       10       11 ar
  11       10       12 ar
  12        9       13 ar
  13       13       14 ar
  14       14        6 ar
  15        4       15 1
  16       15       16 2
  17       16       17 1
  18       17       18 ar
  19       18       19 ar
  20       19       20 ar
  21       20       21 ar
  22       21       22 ar
  23       22       17 ar
  24       22       23 1
  25       23       15 1
  26        2       24 am
  27       24       25 1
  28       25       26 1
  29       26       27 1
  30       27       28 1
  31       28       29 1
  32       29       30 ar
  33       30       31 ar
  34       31       32 ar
  35       32       33 ar
  36       33       34 ar
  37       34       29 ar
  38       27       35 1
  39       35       36 1
  40       36       24 1
  41        3       37 1
  42        3       38 1
  43        5       39 1
  44        7       40 1
  45        8       41 1
  46       13       42 1
  47       14       43 1
  48       18       44 1
  49       19       45 1
  50       20       46 1
  51       21       47 1
  52       25       48 1
  53       25       49 1
  54       26       50 1
  55       26       51 1
  56       28       52 1
  57       28       53 1
  58       30       54 1
  59       31       55 1
  60       32       56 1
  61       33       57 1
  62       35       58 1
  63       35       59 1
  64       36       60 1
  65       36       61 1

@<TRIPOS>MOLECULE

  61   65
SMALL
USER_CHARGES
@<TRIPOS>ATOM
   1 O1           0.2003     3.0725     0.2003 O.2          1    LIG   0.0000
   2 C2           0.1224     1.8776     0.1224 C.2          1    LIG   0.0000
   3 C3           1.0000     1.0000     1.0000 C.3          1    LIG   0.0000
   4 C4           1.8776     1.8776     1.8776 C.2          1    LIG   0.0000
   5 C5           3.1721     1.7932     1.7932 C.2          1    LIG   0.0000
   6 C6           4.0096     2.6307     2.6307 C.ar         1    LIG   0.0000
   7 C7           3.9119     4.0155     2.5331 C.ar         1    LIG   0.0000
   8 C8           4.7112     4.8266     3.3316 C.ar         1    LIG   0.0000
   9 C9           5.6025     4.2353     4.2206 C.ar         1    LIG   0.0000
  10 N10          6.4101     5.0464     5.0270 N.2          1    LIG   1.0000
  11 O11          7.1890     4.5427     5.8041 O.co2        1    LIG   0.0000
  12 O12          6.3286     6.2610     4.9462 O.co2        1    LIG  -1.0000
  13 C13          5.7076     2.8524     4.3249 C.ar         1    LIG   0.0000
  14 C14          4.9034     2.0487     3.5232 C.ar         1    LIG   0.0000
  15 C15          1.2697     2.8106     2.8106 C.2          1    LIG   0.0000
  16 N16         -0.0075     3.0224     3.0226 N.2          1    LIG   0.0000
  17 C17         -0.3219     3.9692     3.9700 C.ar         1    LIG   0.0000
  18 C18         -1.5277     4.4581     4.4652 C.ar         1    LIG   0.0000
  19 C19         -1.5735     5.4411     5.4500 C.ar         1    LIG   0.0000
  20 C20         -0.4094     5.9830     5.9886 C.ar         1    LIG   0.0000
  21 C21          0.8205     5.5345     5.5359 C.ar         1    LIG   0.0000
  22 C22          0.7749     4.5575     4.5558 C.ar         1    LIG   0.0000
  23 S23          2.1435     3.8431     3.8431 S.3          1    LIG   0.0000
  24 N24         -0.7766     1.2918    -0.7766 N.am         1    LIG   0.0000
  25 C25         -0.8543    -0.1759    -0.8543 C.3          1    LIG   0.0000
  26 C26         -1.1831    -0.6472    -2.2634 C.3          1    LIG   0.0000
  27 N27         -2.2768     0.1315    -2.8692 N.3          1    LIG   0.0000
  28 C28         -2.4676    -0.3538    -4.2434 C.3          1    LIG   0.0000
  29 C29         -1.2801     0.0613    -5.0968 C.ar         1    LIG   0.0000
  30 C30         -1.3381     1.2849    -5.7554 C.ar         1    LIG   0.0000
  31 C31         -0.2554     1.6720    -6.5376 C.ar         1    LIG   0.0000
  32 C32          0.8539     0.8408    -6.6496 C.ar         1    LIG   0.0000
  33 C33          0.8493    -0.3701    -5.9654 C.ar         1    LIG   0.0000
  34 N34         -0.2023    -0.7286    -5.2143 N.ar         1    LIG   0.0000
  35 C35         -1.8785     1.5442    -2.9800 C.3          1    LIG   0.0000
  36 C36         -1.6053     2.1687    -1.6191 C.3          1    LIG   0.0000
  37 H            0.4226     0.4226     1.5774 H            1    LIG   0.0000
  38 H            1.5774     0.4226     0.4226 H            1    LIG   0.0000
  39 H            3.5905     1.1510     1.1510 H            1    LIG   0.0000
  40 H            3.2673     4.4273     1.8889 H            1    LIG   0.0000
  41 H            4.6458     5.8223     3.2675 H            1    LIG   0.0000
  42 H            6.3533     2.4409     4.9681 H            1    LIG   0.0000
  43 H            4.9680     1.0529     3.5886 H            1    LIG   0.0000
  44 H           -2.3853     4.0928     4.1033 H            1    LIG   0.0000
  45 H           -2.4611     5.7649     5.7774 H            1    LIG   0.0000
  46 H           -0.4607     6.6887     6.6952 H            1    LIG   0.0000
  47 H            1.6833     5.8923     5.8929 H            1    LIG   0.0000
  48 H           -1.5672    -0.4963    -0.2305 H            1    LIG   0.0000
  49 H            0.0265    -0.5621    -0.5804 H            1    LIG   0.0000
  50 H           -0.3668    -0.5531    -2.8332 H            1    LIG   0.0000
  51 H           -1.4547    -1.6089    -2.2262 H            1    LIG   0.0000
  52 H           -3.3047     0.0402    -4.6229 H            1    LIG   0.0000
  53 H           -2.5415    -1.3511    -4.2375 H            1    LIG   0.0000
  54 H           -2.1414     1.8740    -5.6683 H            1    LIG   0.0000
  55 H           -0.2746     2.5480    -7.0196 H            1    LIG   0.0000
  56 H            1.6379     1.1080    -7.2099 H            1    LIG   0.0000
  57 H            1.6388    -0.9801    -6.0343 H            1    LIG   0.0000
  58 H           -2.6145     2.0529    -3.4267 H            1    LIG   0.0000
  59 H           -1.0484     1.6029    -3.5345 H            1    LIG   0.0000
  60 H           -1.1282     3.0376    -1.7508 H            1    LIG   0.0000
  61 H           -2.4767     2.3337    -1.1570 H            1    LIG   0.0000
@<TRIPOS>BOND
   1        1        2 2
   2        2        3 1
   3        3        4 1
   4        4        5 2
   5        5        6 1
   6        6        7 ar
   7        7        8 ar
   8        8        9 ar
   9        9       10 1
  10       10       11 ar
  11       10       12 ar
  12        9       13 ar
  13       13       14 ar
  14       14        6 ar
  15        4       15 1
  16       15       16 2
  17       16       17 1
  18       17       18 ar
  19       18       19 ar
  20       19       20 ar
  21       20       21 ar
  22       21       22 ar
  23       22       17 ar
  24       22       23 1
  25       23       15 1
  26        2       24 am
  27       24       25 1
  28       25       26 1
  29       26       27 1
  30       27       28 1
  31       28       29 1
  32       29       30 ar
  33       30       31 ar
  34       31       32 ar
  35       32       33 ar
  36       33       34 ar
  37       34       29 ar
  38       27       35 1
  39       35       36 1
  40       36       24 1
  41        3       37 1
  42        3       38 1
  43        5       39 1
  44        7       40 1
  45        8       41 1
  46       13       42 1
  47       14       43 1
  48       18       44 1
  49       19       45 1
  50       20       46 1
  51       21       47 1
  52       25       48 1
  53       25       49 1
  54       26       50 1
  55       26       51 1
  56       28       52 1
  57       28       53 1
  58       30       54 1
  59       31       55 1
  60       32       56 1
  61       33       57 1
  62       35       58 1
  63       35       59 1
  64       36       60 1
  65       36       61 1

@<TRIPOS>MOLECULE

  61   65
SMALL
USER_CHARGES
@<TRIPOS>ATOM
   1 O1           0.2003     3.0725     0.2003 O.2          1    LIG   0.0000
   2 C2           0.1224     1.8776     0.1224 C.2          1    LIG   0.0000
   3 C3           1.0000     1.0000     1.0000 C.3          1    LIG   0.0000
   4 C4           1.8776     1.8776     1.8776 C.2          1    LIG   0.0000
   5 C5           3.1721     1.7932     1.7932 C.2          1    LIG   0.0000
   6 C6           4.0096     2.6307     2.6307 C.ar         1    LIG   0.0000
   7 C7           3.9119     2.5331     4.0155 C.ar         1    LIG   0.0000
   8 C8           4.7105     3.3323     4.8266 C.ar         1    LIG   0.0000
   9 C9           5.5995     4.2236     4.2353 C.ar         1    LIG   0.0000
  10 N10          6.4059     5.0313     5.0464 N.2          1    LIG   1.0000
  11 O11          7.1829     5.8101     4.5427 O.co2        1    LIG   0.0000
  12 O12          6.3251     4.9497     6.2610 O.co2        1    LIG  -1.0000
  13 C13          5.7037     4.3287     2.8524 C.ar         1    LIG   0.0000
  14 C14          4.9020     3.5246     2.0487 C.ar         1    LIG   0.0000
  15 C15          1.2697     2.8106     2.8106 C.2          1    LIG   0.0000
  16 N16         -0.0075     3.0224     3.0226 N.2          1    LIG   0.0000
  17 C17         -0.3219     3.9692     3.9700 C.ar         1    LIG   0.0000
  18 C18         -1.5277     4.4581     4.4652 C.ar         1    LIG   0.0000
  19 C19         -1.5735     5.4411     5.4500 C.ar         1    LIG   0.0000
  20 C20         -0.4094     5.9830     5.9886 C.ar         1    LIG   0.0000
  21 C21          0.8205     5.5345     5.5359 C.ar         1    LIG   0.0000
  22 C22          0.7749     4.5575     4.5558 C.ar         1    LIG   0.0000
  23 S23          2.1435     3.8431     3.8431 S.3          1    LIG   0.0000
  24 N24         -0.7766     1.2918    -0.7766 N.am         1    LIG   0.0000
  25 C25         -1.6159     2.1621    -1.6159 C.3          1    LIG   0.0000
  26 C26         -2.9741     1.5343    -1.8938 C.3          1    LIG   0.0000
  27 N27         -2.8638     0.1149    -2.2714 N.3          1    LIG   0.0000
  28 C28         -4.2248    -0.4109    -2.4490 C.3          1    LIG   0.0000
  29 C29         -4.8437     0.1964    -3.6977 C.ar         1    LIG   0.0000
  30 C30         -4.6675    -0.4651    -4.9084 C.ar         1    LIG   0.0000
  31 C31         -5.2310     0.0838    -6.0551 C.ar         1    LIG   0.0000
  32 C32         -5.9517     1.2706    -5.9760 C.ar         1    LIG   0.0000
  33 C33         -6.0913     1.8824    -4.7348 C.ar         1    LIG   0.0000
  34 N34         -5.5424     1.3398    -3.6380 N.ar         1    LIG   0.0000
  35 C35         -2.2657    -0.6486    -1.1642 C.3          1    LIG   0.0000
  36 C36         -0.8552    -0.1762    -0.8414 C.3          1    LIG   0.0000
  37 H            0.4226     0.4226     1.5774 H            1    LIG   0.0000
  38 H            1.5774     0.4226     0.4226 H            1    LIG   0.0000
  39 H            3.5905     1.1510     1.1510 H            1    LIG   0.0000
  40 H            3.2678     1.8885     4.4273 H            1    LIG   0.0000
  41 H            4.6463     3.2669     5.8223 H            1    LIG   0.0000
  42 H            6.3470     4.9744     2.4409 H            1    LIG   0.0000
  43 H            4.9674     3.5892     1.0529 H            1    LIG   0.0000
  44 H           -2.3853     4.0928     4.1033 H            1    LIG   0.0000
  45 H           -2.4611     5.7649     5.7774 H            1    LIG   0.0000
  46 H           -0.4607     6.6887     6.6952 H            1    LIG   0.0000
  47 H            1.6833     5.8923     5.8929 H            1    LIG   0.0000
  48 H           -1.1488     2.3224    -2.4854 H            1    LIG   0.0000
  49 H           -1.7518     3.0337    -1.1448 H            1    LIG   0.0000
  50 H           -3.5365     1.6057    -1.0700 H            1    LIG   0.0000
  51 H           -3.4127     2.0333    -2.6412 H            1    LIG   0.0000
  52 H           -4.7805    -0.1734    -1.6523 H            1    LIG   0.0000
  53 H           -4.1880    -1.4056    -2.5452 H            1    LIG   0.0000
  54 H           -4.1465    -1.3174    -4.9534 H            1    LIG   0.0000
  55 H           -5.1181    -0.3749    -6.9365 H            1    LIG   0.0000
  56 H           -6.3607     1.6753    -6.7939 H            1    LIG   0.0000
  57 H           -6.6065     2.7361    -4.6594 H            1    LIG   0.0000
  58 H           -2.2319    -1.6148    -1.4197 H            1    LIG   0.0000
  59 H           -2.8369    -0.5387    -0.3508 H            1    LIG   0.0000
  60 H           -0.5804    -0.5552     0.0422 H            1    LIG   0.0000
  61 H           -0.2328    -0.5034    -1.5525 H            1    LIG   0.0000
@<TRIPOS>BOND
   1        1        2 2
   2        2        3 1
   3        3        4 1
   4        4        5 2
   5        5        6 1
   6        6        7 ar
   7        7        8 ar
   8        8        9 ar
   9        9       10 1
  10       10       11 ar
  11       10       12 ar
  12        9       13 ar
  13       13       14 ar
  14       14        6 ar
  15        4       15 1
  16       15       16 2
  17       16       17 1
  18       17       18 ar
  19       18       19 ar
  20       19       20 ar
  21       20       21 ar
  22       21       22 ar
  23       22       17 ar
  24       22       23 1
  25       23       15 1
  26        2       24 am
  27       24       25 1
  28       25       26 1
  29       26       27 1
  30       27       28 1
  31       28       29 1
  32       29       30 ar
  33       30       31 ar
  34       31       32 ar
  35       32       33 ar
  36       33       34 ar
  37       34       29 ar
  38       27       35 1
  39       35       36 1
  40       36       24 1
  41        3       37 1
  42        3       38 1
  43        5       39 1
  44        7       40 1
  45        8       41 1
  46       13       42 1
  47       14       43 1
  48       18       44 1
  49       19       45 1
  50       20       46 1
  51       21       47 1
  52       25       48 1
  53       25       49 1
  54       26       50 1
  55       26       51 1
  56       28       52 1
  57       28       53 1
  58       30       54 1
  59       31       55 1
  60       32       56 1
  61       33       57 1
  62       35       58 1
  63       35       59 1
  64       36       60 1
  65       36       61 1

@<TRIPOS>MOLECULE

  61   65
SMALL
USER_CHARGES
@<TRIPOS>ATOM
   1 O1           0.2003     3.0725     0.2003 O.2          1    LIG   0.0000
   2 C2           0.1224     1.8776     0.1224 C.2          1    LIG   0.0000
   3 C3           1.0000     1.0000     1.0000 C.3          1    LIG   0.0000
   4 C4           1.8776     1.8776     1.8776 C.2          1    LIG   0.0000
   5 C5           3.1721     1.7932     1.7932 C.2          1    LIG   0.0000
   6 C6           4.0096     2.6307     2.6307 C.ar         1    LIG   0.0000
   7 C7           3.9119     2.5331     4.0155 C.ar         1    LIG   0.0000
   8 C8           4.7105     3.3323     4.8266 C.ar         1    LIG   0.0000
   9 C9           5.5995     4.2236     4.2353 C.ar         1    LIG   0.0000
  10 N10          6.4059     5.0313     5.0464 N.2          1    LIG   1.0000
  11 O11          7.1829     5.8101     4.5427 O.co2        1    LIG   0.0000
  12 O12          6.3251     4.9497     6.2610 O.co2        1    LIG  -1.0000
  13 C13          5.7037     4.3287     2.8524 C.ar         1    LIG   0.0000
  14 C14          4.9020     3.5246     2.0487 C.ar         1    LIG   0.0000
  15 C15          1.2697     2.8106     2.8106 C.2          1    LIG   0.0000
  16 N16         -0.0075     3.0224     3.0226 N.2          1    LIG   0.0000
  17 C17         -0.3219     3.9692     3.9700 C.ar         1    LIG   0.0000
  18 C18         -1.5277     4.4581     4.4652 C.ar         1    LIG   0.0000
  19 C19         -1.5735     5.4411     5.4500 C.ar         1    LIG   0.0000
  20 C20         -0.4094     5.9830     5.9886 C.ar         1    LIG   0.0000
  21 C21          0.8205     5.5345     5.5359 C.ar         1    LIG   0.0000
  22 C22          0.7749     4.5575     4.5558 C.ar         1    LIG   0.0000
  23 S23          2.1435     3.8431     3.8431 S.3          1    LIG   0.0000
  24 N24         -0.7814     1.2887    -0.7814 N.am         1    LIG   0.0000
  25 C25         -0.9102    -0.1694    -0.9102 C.3          1    LIG   0.0000
  26 C26         -1.3300    -0.4224    -2.3495 C.3          1    LIG   0.0000
  27 N27         -2.6925     0.0645    -2.6203 N.3          1    LIG   0.0000
  28 C28         -3.7282    -0.9209    -2.2770 C.3          1    LIG   0.0000
  29 C29         -3.8053    -1.0694    -0.7661 C.ar         1    LIG   0.0000
  30 C30         -4.6749    -0.2396    -0.0664 C.ar         1    LIG   0.0000
  31 C31         -4.7517    -0.3698     1.3160 C.ar         1    LIG   0.0000
  32 C32         -3.9676    -1.3140     1.9700 C.ar         1    LIG   0.0000
  33 C33         -3.1183    -2.1132     1.2121 C.ar         1    LIG   0.0000
  34 N34         -3.0565    -1.9759    -0.1205 N.ar         1    LIG   0.0000
  35 C35         -2.9352     1.2953    -1.8489 C.3          1    LIG   0.0000
  36 C36         -1.6524     2.0898    -1.6510 C.3          1    LIG   0.0000
  37 H            0.4226     0.4226     1.5774 H            1    LIG   0.0000
  38 H            1.5774     0.4226     0.4226 H            1    LIG   0.0000
  39 H            3.5905     1.1510     1.1510 H            1    LIG   0.0000
  40 H            3.2678     1.8885     4.4273 H            1    LIG   0.0000
  41 H            4.6463     3.2669     5.8223 H            1    LIG   0.0000
  42 H            6.3470     4.9744     2.4409 H            1    LIG   0.0000
  43 H            4.9674     3.5892     1.0529 H            1    LIG   0.0000
  44 H           -2.3853     4.0928     4.1033 H            1    LIG   0.0000
  45 H           -2.4611     5.7649     5.7774 H            1    LIG   0.0000
  46 H           -0.4607     6.6887     6.6952 H            1    LIG   0.0000
  47 H            1.6833     5.8923     5.8929 H            1    LIG   0.0000
  48 H           -1.6048    -0.5147    -0.2791 H            1    LIG   0.0000
  49 H           -0.0354    -0.6145    -0.7193 H            1    LIG   0.0000
  50 H           -0.6920     0.0479    -2.9593 H            1    LIG   0.0000
  51 H           -1.2974    -1.4059    -2.5272 H            1    LIG   0.0000
  52 H           -3.4978    -1.8032    -2.6874 H            1    LIG   0.0000
  53 H           -4.6122    -0.6110    -2.6271 H            1    LIG   0.0000
  54 H           -5.2332     0.4365    -0.5472 H            1    LIG   0.0000
  55 H           -5.3706     0.2155     1.8397 H            1    LIG   0.0000
  56 H           -4.0134    -1.4161     2.9637 H            1    LIG   0.0000
  57 H           -2.5475    -2.7976     1.6658 H            1    LIG   0.0000
  58 H           -3.3071     1.0499    -0.9536 H            1    LIG   0.0000
  59 H           -3.5962     1.8622    -2.3405 H            1    LIG   0.0000
  60 H           -1.2067     2.2475    -2.5321 H            1    LIG   0.0000
  61 H           -1.8556     2.9681    -1.2183 H            1    LIG   0.0000
@<TRIPOS>BOND
   1        1        2 2
   2        2        3 1
   3        3        4 1
   4        4        5 2
   5        5        6 1
   6        6        7 ar
   7        7        8 ar
   8        8        9 ar
   9        9       10 1
  10       10       11 ar
  11       10       12 ar
  12        9       13 ar
  13       13       14 ar
  14       14        6 ar
  15        4       15 1
  16       15       16 2
  17       16       17 1
  18       17       18 ar
  19       18       19 ar
  20       19       20 ar
  21       20       21 ar
  22       21       22 ar
  23       22       17 ar
  24       22       23 1
  25       23       15 1
  26        2       24 am
  27       24       25 1
  28       25       26 1
  29       26       27 1
  30       27       28 1
  31       28       29 1
  32       29       30 ar
  33       30       31 ar
  34       31       32 ar
  35       32       33 ar
  36       33       34 ar
  37       34       29 ar
  38       27       35 1
  39       35       36 1
  40       36       24 1
  41        3       37 1
  42        3       38 1
  43        5       39 1
  44        7       40 1
  45        8       41 1
  46       13       42 1
  47       14       43 1
  48       18       44 1
  49       19       45 1
  50       20       46 1
  51       21       47 1
  52       25       48 1
  53       25       49 1
  54       26       50 1
  55       26       51 1
  56       28       52 1
  57       28       53 1
  58       30       54 1
  59       31       55 1
  60       32       56 1
  61       33       57 1
  62       35       58 1
  63       35       59 1
  64       36       60 1
  65       36       61 1

@<TRIPOS>MOLECULE

  61   65
SMALL
USER_CHARGES
@<TRIPOS>ATOM
   1 O1           0.2003     3.0725     0.2003 O.2          1    LIG   0.0000
   2 C2           0.1224     1.8776     0.1224 C.2          1    LIG   0.0000
   3 C3           1.0000     1.0000     1.0000 C.3          1    LIG   0.0000
   4 C4           1.8776     1.8776     1.8776 C.2          1    LIG   0.0000
   5 C5           1.7932     1.7932     3.1721 C.2          1    LIG   0.0000
   6 C6           2.6307     2.6307     4.0096 C.ar         1    LIG   0.0000
   7 C7           4.0155     2.5331     3.9119 C.ar         1    LIG   0.0000
   8 C8           4.8266     3.3316     4.7112 C.ar         1    LIG   0.0000
   9 C9           4.2353     4.2206     5.6025 C.ar         1    LIG   0.0000
  10 N10          5.0464     5.0270     6.4101 N.2          1    LIG   1.0000
  11 O11          4.5427     5.8041     7.1890 O.co2        1    LIG   0.0000
  12 O12          6.2610     4.9462     6.3286 O.co2        1    LIG  -1.0000
  13 C13          2.8524     4.3249     5.7076 C.ar         1    LIG   0.0000
  14 C14          2.0487     3.5232     4.9034 C.ar         1    LIG   0.0000
  15 C15          2.8106     2.8106     1.2697 C.2          1    LIG   0.0000
  16 N16          3.0224     3.0226    -0.0075 N.2          1    LIG   0.0000
  17 C17          3.9692     3.9700    -0.3219 C.ar         1    LIG   0.0000
  18 C18          4.4581     4.4652    -1.5277 C.ar         1    LIG   0.0000
  19 C19          5.4411     5.4500    -1.5735 C.ar         1    LIG   0.0000
  20 C20          5.9830     5.9886    -0.4094 C.ar         1    LIG   0.0000
  21 C21          5.5345     5.5359     0.8205 C.ar         1    LIG   0.0000
  22 C22          4.5575     4.5558     0.7749 C.ar         1    LIG   0.0000
  23 S23          3.8431     3.8431     2.1435 S.3          1    LIG   0.0000
  24 N24         -0.7713     1.2953    -0.7713 N.am         1    LIG   0.0000
  25 C25         -0.8342    -0.1732    -0.8342 C.3          1    LIG   0.0000
  26 C26         -1.1932    -0.6133    -2.2439 C.3          1    LIG   0.0000
  27 N27         -0.9254     0.4687    -3.2034 N.3          1    LIG   0.0000
  28 C28         -1.0400    -0.0121    -4.5877 C.3          1    LIG   0.0000
  29 C29          0.1180    -0.9471    -4.8969 C.ar         1    LIG   0.0000
  30 C30         -0.0465    -2.3050    -4.6449 C.ar         1    LIG   0.0000
  31 C31          1.0081    -3.1668    -4.9256 C.ar         1    LIG   0.0000
  32 C32          2.1963    -2.6653    -5.4459 C.ar         1    LIG   0.0000
  33 C33          2.2968    -1.2971    -5.6751 C.ar         1    LIG   0.0000
  34 N34          1.2702    -0.4792    -5.3998 N.ar         1    LIG   0.0000
  35 C35         -1.8417     1.5931    -2.9603 C.3          1    LIG   0.0000
  36 C36         -1.5699     2.2108    -1.5987 C.3          1    LIG   0.0000
  37 H            0.4226     0.4226     1.5774 H            1    LIG   0.0000
  38 H            1.5774     0.4226     0.4226 H            1    LIG   0.0000
  39 H            1.1510     1.1510     3.5905 H            1    LIG   0.0000
  40 H            4.4273     1.8889     3.2673 H            1    LIG   0.0000
  41 H            5.8223     3.2675     4.6458 H            1    LIG   0.0000
  42 H            2.4409     4.9681     6.3533 H            1    LIG   0.0000
  43 H            1.0529     3.5886     4.9680 H            1    LIG   0.0000
  44 H            4.0928     4.1033    -2.3853 H            1    LIG   0.0000
  45 H            5.7649     5.7774    -2.4611 H            1    LIG   0.0000
  46 H            6.6887     6.6952    -0.4607 H            1    LIG   0.0000
  47 H            5.8923     5.8929     1.6833 H            1    LIG   0.0000
  48 H           -1.5299    -0.5033    -0.1962 H            1    LIG   0.0000
  49 H            0.0556    -0.5547    -0.5839 H            1    LIG   0.0000
  50 H           -0.6457    -1.4135    -2.4886 H            1    LIG   0.0000
  51 H           -2.1641    -0.8506    -2.2777 H            1    LIG   0.0000
  52 H           -1.0159     0.7669    -5.2142 H            1    LIG   0.0000
  53 H           -1.9039    -0.5032    -4.6995 H            1    LIG   0.0000
  54 H           -0.9052    -2.6542    -4.2697 H            1    LIG   0.0000
  55 H            0.9120    -4.1472    -4.7534 H            1    LIG   0.0000
  56 H            2.9619    -3.2751    -5.6508 H            1    LIG   0.0000
  57 H            3.1437    -0.9192    -6.0491 H            1    LIG   0.0000
  58 H           -2.7849     1.2623    -2.9899 H            1    LIG   0.0000
  59 H           -1.7089     2.2859    -3.6691 H            1    LIG   0.0000
  60 H           -1.0688     3.0677    -1.7197 H            1    LIG   0.0000
  61 H           -2.4396     2.3951    -1.1409 H            1    LIG   0.0000
@<TRIPOS>BOND
   1        1        2 2
   2        2        3 1
   3        3        4 1
   4        4        5 2
   5        5        6 1
   6        6        7 ar
   7        7        8 ar
   8        8        9 ar
   9        9       10 1
  10       10       11 ar
  11       10       12 ar
  12        9       13 ar
  13       13       14 ar
  14       14        6 ar
  15        4       15 1
  16       15       16 2
  17       16       17 1
  18       17       18 ar
  19       18       19 ar
  20       19       20 ar
  21       20       21 ar
  22       21       22 ar
  23       22       17 ar
  24       22       23 1
  25       23       15 1
  26        2       24 am
  27       24       25 1
  28       25       26 1
  29       26       27 1
  30       27       28 1
  31       28       29 1
  32       29       30 ar
  33       30       31 ar
  34       31       32 ar
  35       32       33 ar
  36       33       34 ar
  37       34       29 ar
  38       27       35 1
  39       35       36 1
  40       36       24 1
  41        3       37 1
  42        3       38 1
  43        5       39 1
  44        7       40 1
  45        8       41 1
  46       13       42 1
  47       14       43 1
  48       18       44 1
  49       19       45 1
  50       20       46 1
  51       21       47 1
  52       25       48 1
  53       25       49 1
  54       26       50 1
  55       26       51 1
  56       28       52 1
  57       28       53 1
  58       30       54 1
  59       31       55 1
  60       32       56 1
  61       33       57 1
  62       35       58 1
  63       35       59 1
  64       36       60 1
  65       36       61 1

@<TRIPOS>MOLECULE

  61   65
SMALL
USER_CHARGES
@<TRIPOS>ATOM
   1 O1           0.2003     3.0725     0.2003 O.2          1    LIG   0.0000
   2 C2           0.1224     1.8776     0.1224 C.2          1    LIG   0.0000
   3 C3           1.0000     1.0000     1.0000 C.3          1    LIG   0.0000
   4 C4           1.8776     1.8776     1.8776 C.2          1    LIG   0.0000
   5 C5           1.7932     1.7932     3.1721 C.2          1    LIG   0.0000
   6 C6           2.6307     2.6307     4.0096 C.ar         1    LIG   0.0000
   7 C7           4.0155     2.5331     3.9119 C.ar         1    LIG   0.0000
   8 C8           4.8266     3.3316     4.7112 C.ar         1    LIG   0.0000
   9 C9           4.2353     4.2206     5.6025 C.ar         1    LIG   0.0000
  10 N10          5.0464     5.0270     6.4101 N.2          1    LIG   1.0000
  11 O11          4.5427     5.8041     7.1890 O.co2        1    LIG   0.0000
  12 O12          6.2610     4.9462     6.3286 O.co2        1    LIG  -1.0000
  13 C13          2.8524     4.3249     5.7076 C.ar         1    LIG   0.0000
  14 C14          2.0487     3.5232     4.9034 C.ar         1    LIG   0.0000
  15 C15          2.8106     2.8106     1.2697 C.2          1    LIG   0.0000
  16 N16          3.0224     3.0226    -0.0075 N.2          1    LIG   0.0000
  17 C17          3.9692     3.9700    -0.3219 C.ar         1    LIG   0.0000
  18 C18          4.4581     4.4652    -1.5277 C.ar         1    LIG   0.0000
  19 C19          5.4411     5.4500    -1.5735 C.ar         1    LIG   0.0000
  20 C20          5.9830     5.9886    -0.4094 C.ar         1    LIG   0.0000
  21 C21          5.5345     5.5359     0.8205 C.ar         1    LIG   0.0000
  22 C22          4.5575     4.5558     0.7749 C.ar         1    LIG   0.0000
  23 S23          3.8431     3.8431     2.1435 S.3          1    LIG   0.0000
  24 N24         -0.7814     1.2887    -0.7814 N.am         1    LIG   0.0000
  25 C25         -1.6488     2.0977    -1.6488 C.3          1    LIG   0.0000
  26 C26         -2.8985     1.2629    -1.8790 C.3          1    LIG   0.0000
  27 N27         -2.6217     0.0687    -2.6939 N.3          1    LIG   0.0000
  28 C28         -2.6868     0.3369    -4.1379 C.3          1    LIG   0.0000
  29 C29         -4.1300     0.5926    -4.5412 C.ar         1    LIG   0.0000
  30 C30         -4.9070    -0.4931    -4.9311 C.ar         1    LIG   0.0000
  31 C31         -6.2284    -0.2675    -5.3010 C.ar         1    LIG   0.0000
  32 C32         -6.7464     1.0229    -5.2773 C.ar         1    LIG   0.0000
  33 C33         -5.9169     2.0653    -4.8775 C.ar         1    LIG   0.0000
  34 N34         -4.6449     1.8311    -4.5229 N.ar         1    LIG   0.0000
  35 C35         -1.2813    -0.4469    -2.3677 C.3          1    LIG   0.0000
  36 C36         -0.9157    -0.1673    -0.9171 C.3          1    LIG   0.0000
  37 H            0.4226     0.4226     1.5774 H            1    LIG   0.0000
  38 H            1.5774     0.4226     0.4226 H            1    LIG   0.0000
  39 H            1.1510     1.1510     3.5905 H            1    LIG   0.0000
  40 H            4.4273     1.8889     3.2673 H            1    LIG   0.0000
  41 H            5.8223     3.2675     4.6458 H            1    LIG   0.0000
  42 H            2.4409     4.9681     6.3533 H            1    LIG   0.0000
  43 H            1.0529     3.5886     4.9680 H            1    LIG   0.0000
  44 H            4.0928     4.1033    -2.3853 H            1    LIG   0.0000
  45 H            5.7649     5.7774    -2.4611 H            1    LIG   0.0000
  46 H            6.6887     6.6952    -0.4607 H            1    LIG   0.0000
  47 H            5.8923     5.8929     1.6833 H            1    LIG   0.0000
  48 H           -1.1921     2.2881    -2.5178 H            1    LIG   0.0000
  49 H           -1.8837     2.9598    -1.1998 H            1    LIG   0.0000
  50 H           -3.2605     0.9725    -0.9932 H            1    LIG   0.0000
  51 H           -3.5794     1.8241    -2.3496 H            1    LIG   0.0000
  52 H           -2.3354    -0.4533    -4.6399 H            1    LIG   0.0000
  53 H           -2.1331     1.1415    -4.3528 H            1    LIG   0.0000
  54 H           -4.5235    -1.4165    -4.9451 H            1    LIG   0.0000
  55 H           -6.8061    -1.0331    -5.5839 H            1    LIG   0.0000
  56 H           -7.6948     1.1976    -5.5420 H            1    LIG   0.0000
  57 H           -6.2728     2.9995    -4.8542 H            1    LIG   0.0000
  58 H           -0.6096    -0.0062    -2.9631 H            1    LIG   0.0000
  59 H           -1.2665    -1.4348    -2.5222 H            1    LIG   0.0000
  60 H           -1.6359    -0.5038    -0.3104 H            1    LIG   0.0000
  61 H           -0.0511    -0.6148    -0.6884 H            1    LIG   0.0000
@<TRIPOS>BOND
   1        1        2 2
   2        2        3 1
   3        3        4 1
   4        4        5 2
   5        5        6 1
   6        6        7 ar
   7        7        8 ar
   8        8        9 ar
   9        9       10 1
  10       10       11 ar
  11       10       12 ar
  12        9       13 ar
  13       13       14 ar
  14       14        6 ar
  15        4       15 1
  16       15       16 2
  17       16       17 1
  18       17       18 ar
  19       18       19 ar
  20       19       20 ar
  21       20       21 ar
  22       21       22 ar
  23       22       17 ar
  24       22       23 1
  25       23       15 1
  26        2       24 am
  27       24       25 1
  28       25       26 1
  29       26       27 1
  30       27       28 1
  31       28       29 1
  32       29       30 ar
  33       30       31 ar
  34       31       32 ar
  35       32       33 ar
  36       33       34 ar
  37       34       29 ar
  38       27       35 1
  39       35       36 1
  40       36       24 1
  41        3       37 1
  42        3       38 1
  43        5       39 1
  44        7       40 1
  45        8       41 1
  46       13       42 1
  47       14       43 1
  48       18       44 1
  49       19       45 1
  50       20       46 1
  51       21       47 1
  52       25       48 1
  53       25       49 1
  54       26       50 1
  55       26       51 1
  56       28       52 1
  57       28       53 1
  58       30       54 1
  59       31       55 1
  60       32       56 1
  61       33       57 1
  62       35       58 1
  63       35       59 1
  64       36       60 1
  65       36       61 1

@<TRIPOS>MOLECULE

  61   65
SMALL
USER_CHARGES
@<TRIPOS>ATOM
   1 O1           0.2003     3.0725     0.2003 O.2          1    LIG   0.0000
   2 C2           0.1224     1.8776     0.1224 C.2          1    LIG   0.0000
   3 C3           1.0000     1.0000     1.0000 C.3          1    LIG   0.0000
   4 C4           1.8776     1.8776     1.8776 C.2          1    LIG   0.0000
   5 C5           1.7932     1.7932     3.1721 C.2          1    LIG   0.0000
   6 C6           2.6307     2.6307     4.0096 C.ar         1    LIG   0.0000
   7 C7           2.5331     4.0155     3.9119 C.ar         1    LIG   0.0000
   8 C8           3.3323     4.8266     4.7105 C.ar         1    LIG   0.0000
   9 C9           4.2236     4.2353     5.5995 C.ar         1    LIG   0.0000
  10 N10          5.0313     5.0464     6.4059 N.2          1    LIG   1.0000
  11 O11          5.8101     4.5427     7.1829 O.co2        1    LIG   0.0000
  12 O12          4.9497     6.2610     6.3251 O.co2        1    LIG  -1.0000
  13 C13          4.3287     2.8524     5.7037 C.ar         1    LIG   0.0000
  14 C14          3.5246     2.0487     4.9020 C.ar         1    LIG   0.0000
  15 C15          2.8106     2.8106     1.2697 C.2          1    LIG   0.0000
  16 N16          3.6349     3.6347     1.8719 N.2          1    LIG   0.0000
  17 C17          4.4195     4.4188     1.0581 C.ar         1    LIG   0.0000
  18 C18          5.3905     5.3834     1.3127 C.ar         1    LIG   0.0000
  19 C19          6.0554     6.0465     0.2849 C.ar         1    LIG   0.0000
  20 C20          5.7792     5.7735    -1.0523 C.ar         1    LIG   0.0000
  21 C21          4.8232     4.8219    -1.3671 C.ar         1    LIG   0.0000
  22 C22          4.2103     4.2120    -0.2857 C.ar         1    LIG   0.0000
  23 S23          3.0119     3.0119    -0.4081 S.3          1    LIG   0.0000
  24 N24         -0.7763     1.2920    -0.7763 N.am         1    LIG   0.0000
  25 C25         -0.8452    -0.1764    -0.8452 C.3          1    LIG   0.0000
  26 C26         -2.2527    -0.6550    -1.1724 C.3          1    LIG   0.0000
  27 N27         -2.8606     0.1126    -2.2716 N.3          1    LIG   0.0000
  28 C28         -4.2243    -0.4040    -2.4592 C.3          1    LIG   0.0000
  29 C29         -4.1593    -1.8047    -3.0462 C.ar         1    LIG   0.0000
  30 C30         -4.1545    -1.9390    -4.4306 C.ar         1    LIG   0.0000
  31 C31         -4.0946    -3.2171    -4.9753 C.ar         1    LIG   0.0000
  32 C32         -4.0425    -4.3274    -4.1395 C.ar         1    LIG   0.0000
  33 C33         -4.0505    -4.1249    -2.7635 C.ar         1    LIG   0.0000
  34 N34         -4.1076    -2.8858    -2.2538 N.ar         1    LIG   0.0000
  35 C35         -2.9801     1.5279    -1.8839 C.3          1    LIG   0.0000
  36 C36         -1.6261     2.1635    -1.6040 C.3          1    LIG   0.0000
  37 H            0.4226     0.4226     1.5774 H            1    LIG   0.0000
  38 H            1.5774     0.4226     0.4226 H            1    LIG   0.0000
  39 H            1.1510     1.1510     3.5905 H            1    LIG   0.0000
  40 H            1.8885     4.4273     3.2678 H            1    LIG   0.0000
  41 H            3.2669     5.8223     4.6463 H            1    LIG   0.0000
  42 H            4.9744     2.4409     6.3470 H            1    LIG   0.0000
  43 H            3.5892     1.0529     4.9674 H            1    LIG   0.0000
  44 H            5.6168     5.6064     2.2609 H            1    LIG   0.0000
  45 H            6.7459     6.7333     0.5117 H            1    LIG   0.0000
  46 H            6.2661     6.2596    -1.7780 H            1    LIG   0.0000
  47 H            4.5913     4.5908    -2.3120 H            1    LIG   0.0000
  48 H           -0.5701    -0.5562     0.0380 H            1    LIG   0.0000
  49 H           -0.2194    -0.4979    -1.5559 H            1    LIG   0.0000
  50 H           -2.2118    -1.6185    -1.4368 H            1    LIG   0.0000
  51 H           -2.8236    -0.5570    -0.3572 H            1    LIG   0.0000
  52 H           -4.7252     0.1960    -3.0831 H            1    LIG   0.0000
  53 H           -4.6938    -0.4339    -1.5767 H            1    LIG   0.0000
  54 H           -4.1932    -1.1334    -5.0218 H            1    LIG   0.0000
  55 H           -4.0890    -3.3378    -5.9680 H            1    LIG   0.0000
  56 H           -4.0002    -5.2514    -4.5196 H            1    LIG   0.0000
  57 H           -4.0132    -4.9118    -2.1476 H            1    LIG   0.0000
  58 H           -3.5415     1.5894    -1.0587 H            1    LIG   0.0000
  59 H           -3.4236     2.0290    -2.6270 H            1    LIG   0.0000
  60 H           -1.1633     2.3365    -2.4734 H            1    LIG   0.0000
  61 H           -1.7676     3.0291    -1.1236 H            1    LIG   0.0000
@<TRIPOS>BOND
   1        1        2 2
   2        2        3 1
   3        3        4 1
   4        4        5 2
   5        5        6 1
   6        6        7 ar
   7        7        8 ar
   8        8        9 ar
   9        9       10 1
  10       10       11 ar
  11       10       12 ar
  12        9       13 ar
  13       13       14 ar
  14       14        6 ar
  15        4       15 1
  16       15       16 2
  17       16       17 1
  18       17       18 ar
  19       18       19 ar
  20       19       20 ar
  21       20       21 ar
  22       21       22 ar
  23       22       17 ar
  24       22       23 1
  25       23       15 1
  26        2       24 am
  27       24       25 1
  28       25       26 1
  29       26       27 1
  30       27       28 1
  31       28       29 1
  32       29       30 ar
  33       30       31 ar
  34       31       32 ar
  35       32       33 ar
  36       33       34 ar
  37       34       29 ar
  38       27       35 1
  39       35       36 1
  40       36       24 1
  41        3       37 1
  42        3       38 1
  43        5       39 1
  44        7       40 1
  45        8       41 1
  46       13       42 1
  47       14       43 1
  48       18       44 1
  49       19       45 1
  50       20       46 1
  51       21       47 1
  52       25       48 1
  53       25       49 1
  54       26       50 1
  55       26       51 1
  56       28       52 1
  57       28       53 1
  58       30       54 1
  59       31       55 1
  60       32       56 1
  61       33       57 1
  62       35       58 1
  63       35       59 1
  64       36       60 1
  65       36       61 1

@<TRIPOS>MOLECULE

  61   65
SMALL
USER_CHARGES
@<TRIPOS>ATOM
   1 O1           0.2003     3.0725     0.2003 O.2          1    LIG   0.0000
   2 C2           0.1224     1.8776     0.1224 C.2          1    LIG   0.0000
   3 C3           1.0000     1.0000     1.0000 C.3          1    LIG   0.0000
   4 C4           1.8776     1.8776     1.8776 C.2          1    LIG   0.0000
   5 C5           1.7932     1.7932     3.1721 C.2          1    LIG   0.0000
   6 C6           2.6307     2.6307     4.0096 C.ar         1    LIG   0.0000
   7 C7           2.5331     4.0155     3.9119 C.ar         1    LIG   0.0000
   8 C8           3.3323     4.8266     4.7105 C.ar         1    LIG   0.0000
   9 C9           4.2236     4.2353     5.5995 C.ar         1    LIG   0.0000
  10 N10          5.0313     5.0464     6.4059 N.2          1    LIG   1.0000
  11 O11          5.8101     4.5427     7.1829 O.co2        1    LIG   0.0000
  12 O12          4.9497     6.2610     6.3251 O.co2        1    LIG  -1.0000
  13 C13          4.3287     2.8524     5.7037 C.ar         1    LIG   0.0000
  14 C14          3.5246     2.0487     4.9020 C.ar         1    LIG   0.0000
  15 C15          2.8106     2.8106     1.2697 C.2          1    LIG   0.0000
  16 N16          3.6349     3.6347     1.8719 N.2          1    LIG   0.0000
  17 C17          4.4195     4.4188     1.0581 C.ar         1    LIG   0.0000
  18 C18          5.3905     5.3834     1.3127 C.ar         1    LIG   0.0000
  19 C19          6.0554     6.0465     0.2849 C.ar         1    LIG   0.0000
  20 C20          5.7792     5.7735    -1.0523 C.ar         1    LIG   0.0000
  21 C21          4.8232     4.8219    -1.3671 C.ar         1    LIG   0.0000
  22 C22          4.2103     4.2120    -0.2857 C.ar         1    LIG   0.0000
  23 S23          3.0119     3.0119    -0.4081 S.3          1    LIG   0.0000
  24 N24         -0.7766     1.2918    -0.7766 N.am         1    LIG   0.0000
  25 C25         -0.8543    -0.1759    -0.8543 C.3          1    LIG   0.0000
  26 C26         -1.1831    -0.6472    -2.2634 C.3          1    LIG   0.0000
  27 N27         -2.2768     0.1315    -2.8692 N.3          1    LIG   0.0000
  28 C28         -2.4676    -0.3538    -4.2434 C.3          1    LIG   0.0000
  29 C29         -1.2801     0.0613    -5.0968 C.ar         1    LIG   0.0000
  30 C30         -1.3381     1.2849    -5.7554 C.ar         1    LIG   0.0000
  31 C31         -0.2554     1.6720    -6.5376 C.ar         1    LIG   0.0000
  32 C32          0.8539     0.8408    -6.6496 C.ar         1    LIG   0.0000
  33 C33          0.8493    -0.3701    -5.9654 C.ar         1    LIG   0.0000
  34 N34         -0.2023    -0.7286    -5.2143 N.ar         1    LIG   0.0000
  35 C35         -1.8785     1.5442    -2.9800 C.3          1    LIG   0.0000
  36 C36         -1.6053     2.1687    -1.6191 C.3          1    LIG   0.0000
  37 H            0.4226     0.4226     1.5774 H            1    LIG   0.0000
  38 H            1.5774     0.4226     0.4226 H            1    LIG   0.0000
  39 H            1.1510     1.1510     3.5905 H            1    LIG   0.0000
  40 H            1.8885     4.4273     3.2678 H            1    LIG   0.0000
  41 H            3.2669     5.8223     4.6463 H            1    LIG   0.0000
  42 H            4.9744     2.4409     6.3470 H            1    LIG   0.0000
  43 H            3.5892     1.0529     4.9674 H            1    LIG   0.0000
  44 H            5.6168     5.6064     2.2609 H            1    LIG   0.0000
  45 H            6.7459     6.7333     0.5117 H            1    LIG   0.0000
  46 H            6.2661     6.2596    -1.7780 H            1    LIG   0.0000
  47 H            4.5913     4.5908    -2.3120 H            1    LIG   0.0000
  48 H           -1.5672    -0.4963    -0.2305 H            1    LIG   0.0000
  49 H            0.0265    -0.5621    -0.5804 H            1    LIG   0.0000
  50 H           -0.3668    -0.5531    -2.8332 H            1    LIG   0.0000
  51 H           -1.4547    -1.6089    -2.2262 H            1    LIG   0.0000
  52 H           -3.3047     0.0402    -4.6229 H            1    LIG   0.0000
  53 H           -2.5415    -1.3511    -4.2375 H            1    LIG   0.0000
  54 H           -2.1414     1.8740    -5.6683 H            1    LIG   0.0000
  55 H           -0.2746     2.5480    -7.0196 H            1    LIG   0.0000
  56 H            1.6379     1.1080    -7.2099 H            1    LIG   0.0000
  57 H            1.6388    -0.9801    -6.0343 H            1    LIG   0.0000
  58 H           -2.6145     2.0529    -3.4267 H            1    LIG   0.0000
  59 H           -1.0484     1.6029    -3.5345 H            1    LIG   0.0000
  60 H           -1.1282     3.0376    -1.7508 H            1    LIG   0.0000
  61 H           -2.4767     2.3337    -1.1570 H            1    LIG   0.0000
@<TRIPOS>BOND
   1        1        2 2
   2        2        3 1
   3        3        4 1
   4        4        5 2
   5        5        6 1
   6        6        7 ar
   7        7        8 ar
   8        8        9 ar
   9        9       10 1
  10       10       11 ar
  11       10       12 ar
  12        9       13 ar
  13       13       14 ar
  14       14        6 ar
  15        4       15 1
  16       15       16 2
  17       16       17 1
  18       17       18 ar
  19       18       19 ar
  20       19       20 ar
  21       20       21 ar
  22       21       22 ar
  23       22       17 ar
  24       22       23 1
  25       23       15 1
  26        2       24 am
  27       24       25 1
  28       25       26 1
  29       26       27 1
  30       27       28 1
  31       28       29 1
  32       29       30 ar
  33       30       31 ar
  34       31       32 ar
  35       32       33 ar
  36       33       34 ar
  37       34       29 ar
  38       27       35 1
  39       35       36 1
  40       36       24 1
  41        3       37 1
  42        3       38 1
  43        5       39 1
  44        7       40 1
  45        8       41 1
  46       13       42 1
  47       14       43 1
  48       18       44 1
  49       19       45 1
  50       20       46 1
  51       21       47 1
  52       25       48 1
  53       25       49 1
  54       26       50 1
  55       26       51 1
  56       28       52 1
  57       28       53 1
  58       30       54 1
  59       31       55 1
  60       32       56 1
  61       33       57 1
  62       35       58 1
  63       35       59 1
  64       36       60 1
  65       36       61 1

@<TRIPOS>MOLECULE

  61   65
SMALL
USER_CHARGES
@<TRIPOS>ATOM
   1 O1           0.2003     3.0725     0.2003 O.2          1    LIG   0.0000
   2 C2           0.1224     1.8776     0.1224 C.2          1    LIG   0.0000
   3 C3           1.0000     1.0000     1.0000 C.3          1    LIG   0.0000
   4 C4           1.8776     1.8776     1.8776 C.2          1    LIG   0.0000
   5 C5           1.7932     1.7932     3.1721 C.2          1    LIG   0.0000
   6 C6           2.6307     2.6307     4.0096 C.ar         1    LIG   0.0000
   7 C7           2.5331     4.0155     3.9119 C.ar         1    LIG   0.0000
   8 C8           3.3323     4.8266     4.7105 C.ar         1    LIG   0.0000
   9 C9           4.2236     4.2353     5.5995 C.ar         1    LIG   0.0000
  10 N10          5.0313     5.0464     6.4059 N.2          1    LIG   1.0000
  11 O11          5.8101     4.5427     7.1829 O.co2        1    LIG   0.0000
  12 O12          4.9497     6.2610     6.3251 O.co2        1    LIG  -1.0000
  13 C13          4.3287     2.8524     5.7037 C.ar         1    LIG   0.0000
  14 C14          3.5246     2.0487     4.9020 C.ar         1    LIG   0.0000
  15 C15          2.8106     2.8106     1.2697 C.2          1    LIG   0.0000
  16 N16          3.6349     3.6347     1.8719 N.2          1    LIG   0.0000
  17 C17          4.4195     4.4188     1.0581 C.ar         1    LIG   0.0000
  18 C18          5.3905     5.3834     1.3127 C.ar         1    LIG   0.0000
  19 C19          6.0554     6.0465     0.2849 C.ar         1    LIG   0.0000
  20 C20          5.7792     5.7735    -1.0523 C.ar         1    LIG   0.0000
  21 C21          4.8232     4.8219    -1.3671 C.ar         1    LIG   0.0000
  22 C22          4.2103     4.2120    -0.2857 C.ar         1    LIG   0.0000
  23 S23          3.0119     3.0119    -0.4081 S.3          1    LIG   0.0000
  24 N24         -0.7713     1.2953    -0.7713 N.am         1    LIG   0.0000
  25 C25         -1.6015     2.1819    -1.6015 C.3          1    LIG   0.0000
  26 C26         -2.9380     1.5173    -1.8873 C.3          1    LIG   0.0000
  27 N27         -3.1948     0.4424    -0.9168 N.3          1    LIG   0.0000
  28 C28         -4.5751    -0.0507    -1.0275 C.3          1    LIG   0.0000
  29 C29         -5.5354     1.0131    -0.5205 C.ar         1    LIG   0.0000
  30 C30         -6.0286     1.9425    -1.4302 C.ar         1    LIG   0.0000
  31 C31         -6.9080     2.9184    -0.9743 C.ar         1    LIG   0.0000
  32 C32         -7.2756     2.9515     0.3665 C.ar         1    LIG   0.0000
  33 C33         -6.7469     1.9933     1.2249 C.ar         1    LIG   0.0000
  34 N34         -5.9006     1.0580     0.7694 N.ar         1    LIG   0.0000
  35 C35         -2.2295    -0.6500    -1.1109 C.3          1    LIG   0.0000
  36 C36         -0.8220    -0.1736    -0.7931 C.3          1    LIG   0.0000
  37 H            0.4226     0.4226     1.5774 H            1    LIG   0.0000
  38 H            1.5774     0.4226     0.4226 H            1    LIG   0.0000
  39 H            1.1510     1.1510     3.5905 H            1    LIG   0.0000
  40 H            1.8885     4.4273     3.2678 H            1    LIG   0.0000
  41 H            3.2669     5.8223     4.6463 H            1    LIG   0.0000
  42 H            4.9744     2.4409     6.3470 H            1    LIG   0.0000
  43 H            3.5892     1.0529     4.9674 H            1    LIG   0.0000
  44 H            5.6168     5.6064     2.2609 H            1    LIG   0.0000
  45 H            6.7459     6.7333     0.5117 H            1    LIG   0.0000
  46 H            6.2661     6.2596    -1.7780 H            1    LIG   0.0000
  47 H            4.5913     4.5908    -2.3120 H            1    LIG   0.0000
  48 H           -1.1307     2.3655    -2.4644 H            1    LIG   0.0000
  49 H           -1.7558     3.0426    -1.1163 H            1    LIG   0.0000
  50 H           -3.6658     2.2000    -1.8229 H            1    LIG   0.0000
  51 H           -2.9234     1.1316    -2.8098 H            1    LIG   0.0000
  52 H           -4.6775    -0.8807    -0.4792 H            1    LIG   0.0000
  53 H           -4.7800    -0.2560    -1.9845 H            1    LIG   0.0000
  54 H           -5.7564     1.9095    -2.3919 H            1    LIG   0.0000
  55 H           -7.2760     3.5965    -1.6106 H            1    LIG   0.0000
  56 H           -7.9064     3.6492     0.7062 H            1    LIG   0.0000
  57 H           -7.0007     2.0018     2.1921 H            1    LIG   0.0000
  58 H           -2.2667    -0.9579    -2.0616 H            1    LIG   0.0000
  59 H           -2.4652    -1.4098    -0.5050 H            1    LIG   0.0000
  60 H           -0.5489    -0.5261     0.1020 H            1    LIG   0.0000
  61 H           -0.1930    -0.5147    -1.4917 H            1    LIG   0.0000
@<TRIPOS>BOND
   1        1        2 2
   2        2        3 1
   3        3        4 1
   4        4        5 2
   5        5        6 1
   6        6        7 ar
   7        7        8 ar
   8        8        9 ar
   9        9       10 1
  10       10       11 ar
  11       10       12 ar
  12        9       13 ar
  13       13       14 ar
  14       14        6 ar
  15        4       15 1
  16       15       16 2
  17       16       17 1
  18       17       18 ar
  19       18       19 ar
  20       19       20 ar
  21       20       21 ar
  22       21       22 ar
  23       22       17 ar
  24       22       23 1
  25       23       15 1
  26        2       24 am
  27       24       25 1
  28       25       26 1
  29       26       27 1
  30       27       28 1
  31       28       29 1
  32       29       30 ar
  33       30       31 ar
  34       31       32 ar
  35       32       33 ar
  36       33       34 ar
  37       34       29 ar
  38       27       35 1
  39       35       36 1
  40       36       24 1
  41        3       37 1
  42        3       38 1
  43        5       39 1
  44        7       40 1
  45        8       41 1
  46       13       42 1
  47       14       43 1
  48       18       44 1
  49       19       45 1
  50       20       46 1
  51       21       47 1
  52       25       48 1
  53       25       49 1
  54       26       50 1
  55       26       51 1
  56       28       52 1
  57       28       53 1
  58       30       54 1
  59       31       55 1
  60       32       56 1
  61       33       57 1
  62       35       58 1
  63       35       59 1
  64       36       60 1
  65       36       61 1

@<TRIPOS>MOLECULE

  61   65
SMALL
USER_CHARGES
@<TRIPOS>ATOM
   1 O1           0.2003     3.0725     0.2003 O.2          1    LIG   0.0000
   2 C2           0.1224     1.8776     0.1224 C.2          1    LIG   0.0000
   3 C3           1.0000     1.0000     1.0000 C.3          1    LIG   0.0000
   4 C4           1.8776     1.8776     1.8776 C.2          1    LIG   0.0000
   5 C5           1.7932     1.7932     3.1721 C.2          1    LIG   0.0000
   6 C6           2.6307     2.6307     4.0096 C.ar         1    LIG   0.0000
   7 C7           2.5331     4.0155     3.9119 C.ar         1    LIG   0.0000
   8 C8           3.3323     4.8266     4.7105 C.ar         1    LIG   0.0000
   9 C9           4.2236     4.2353     5.5995 C.ar         1    LIG   0.0000
  10 N10          5.0313     5.0464     6.4059 N.2          1    LIG   1.0000
  11 O11          5.8101     4.5427     7.1829 O.co2        1    LIG   0.0000
  12 O12          4.9497     6.2610     6.3251 O.co2        1    LIG  -1.0000
  13 C13          4.3287     2.8524     5.7037 C.ar         1    LIG   0.0000
  14 C14          3.5246     2.0487     4.9020 C.ar         1    LIG   0.0000
  15 C15          2.8106     2.8106     1.2697 C.2          1    LIG   0.0000
  16 N16          3.6349     3.6347     1.8719 N.2          1    LIG   0.0000
  17 C17          4.4195     4.4188     1.0581 C.ar         1    LIG   0.0000
  18 C18          5.3905     5.3834     1.3127 C.ar         1    LIG   0.0000
  19 C19          6.0554     6.0465     0.2849 C.ar         1    LIG   0.0000
  20 C20          5.7792     5.7735    -1.0523 C.ar         1    LIG   0.0000
  21 C21          4.8232     4.8219    -1.3671 C.ar         1    LIG   0.0000
  22 C22          4.2103     4.2120    -0.2857 C.ar         1    LIG   0.0000
  23 S23          3.0119     3.0119    -0.4081 S.3          1    LIG   0.0000
  24 N24         -0.7814     1.2887    -0.7814 N.am         1    LIG   0.0000
  25 C25         -0.9102    -0.1694    -0.9102 C.3          1    LIG   0.0000
  26 C26         -1.3300    -0.4224    -2.3495 C.3          1    LIG   0.0000
  27 N27         -2.6925     0.0645    -2.6203 N.3          1    LIG   0.0000
  28 C28         -3.7282    -0.9209    -2.2770 C.3          1    LIG   0.0000
  29 C29         -3.8053    -1.0694    -0.7661 C.ar         1    LIG   0.0000
  30 C30         -3.0027    -2.0280    -0.1568 C.ar         1    LIG   0.0000
  31 C31         -3.0671    -2.1696     1.2251 C.ar         1    LIG   0.0000
  32 C32         -3.9226    -1.3628     1.9675 C.ar         1    LIG   0.0000
  33 C33         -4.6989    -0.4232     1.2976 C.ar         1    LIG   0.0000
  34 N34         -4.6245    -0.2983    -0.0357 N.ar         1    LIG   0.0000
  35 C35         -2.9352     1.2953    -1.8489 C.3          1    LIG   0.0000
  36 C36         -1.6524     2.0898    -1.6510 C.3          1    LIG   0.0000
  37 H            0.4226     0.4226     1.5774 H            1    LIG   0.0000
  38 H            1.5774     0.4226     0.4226 H            1    LIG   0.0000
  39 H            1.1510     1.1510     3.5905 H            1    LIG   0.0000
  40 H            1.8885     4.4273     3.2678 H            1    LIG   0.0000
  41 H            3.2669     5.8223     4.6463 H            1    LIG   0.0000
  42 H            4.9744     2.4409     6.3470 H            1    LIG   0.0000
  43 H            3.5892     1.0529     4.9674 H            1    LIG   0.0000
  44 H            5.6168     5.6064     2.2609 H            1    LIG   0.0000
  45 H            6.7459     6.7333     0.5117 H            1    LIG   0.0000
  46 H            6.2661     6.2596    -1.7780 H            1    LIG   0.0000
  47 H            4.5913     4.5908    -2.3120 H            1    LIG   0.0000
  48 H           -1.6048    -0.5147    -0.2791 H            1    LIG   0.0000
  49 H           -0.0354    -0.6145    -0.7193 H            1    LIG   0.0000
  50 H           -0.6920     0.0479    -2.9593 H            1    LIG   0.0000
  51 H           -1.2974    -1.4059    -2.5272 H            1    LIG   0.0000
  52 H           -3.4978    -1.8032    -2.6874 H            1    LIG   0.0000
  53 H           -4.6122    -0.6110    -2.6271 H            1    LIG   0.0000
  54 H           -2.3920    -2.6033    -0.7010 H            1    LIG   0.0000
  55 H           -2.4984    -2.8517     1.6849 H            1    LIG   0.0000
  56 H           -3.9783    -1.4561     2.9616 H            1    LIG   0.0000
  57 H           -5.3193     0.1657     1.8156 H            1    LIG   0.0000
  58 H           -3.3071     1.0499    -0.9536 H            1    LIG   0.0000
  59 H           -3.5962     1.8622    -2.3405 H            1    LIG   0.0000
  60 H           -1.2067     2.2475    -2.5321 H            1    LIG   0.0000
  61 H           -1.8556     2.9681    -1.2183 H            1    LIG   0.0000
@<TRIPOS>BOND
   1        1        2 2
   2        2        3 1
   3        3        4 1
   4        4        5 2
   5        5        6 1
   6        6        7 ar
   7        7        8 ar
   8        8        9 ar
   9        9       10 1
  10       10       11 ar
  11       10       12 ar
  12        9       13 ar
  13       13       14 ar
  14       14        6 ar
  15        4       15 1
  16       15       16 2
  17       16       17 1
  18       17       18 ar
  19       18       19 ar
  20       19       20 ar
  21       20       21 ar
  22       21       22 ar
  23       22       17 ar
  24       22       23 1
  25       23       15 1
  26        2       24 am
  27       24       25 1
  28       25       26 1
  29       26       27 1
  30       27       28 1
  31       28       29 1
  32       29       30 ar
  33       30       31 ar
  34       31       32 ar
  35       32       33 ar
  36       33       34 ar
  37       34       29 ar
  38       27       35 1
  39       35       36 1
  40       36       24 1
  41        3       37 1
  42        3       38 1
  43        5       39 1
  44        7       40 1
  45        8       41 1
  46       13       42 1
  47       14       43 1
  48       18       44 1
  49       19       45 1
  50       20       46 1
  51       21       47 1
  52       25       48 1
  53       25       49 1
  54       26       50 1
  55       26       51 1
  56       28       52 1
  57       28       53 1
  58       30       54 1
  59       31       55 1
  60       32       56 1
  61       33       57 1
  62       35       58 1
  63       35       59 1
  64       36       60 1
  65       36       61 1

