@<TRIPOS>MOLECULE
*****
 61 65 0 0 0
SMALL
USER_CHARGES

@<TRIPOS>ATOM
      1 O1          0.2003    3.0725    0.2003 O.2     1  LIG1        0.0000
      2 C2          0.1224    1.8776    0.1224 C.2     1  LIG1        0.0000
      3 C3          1.0000    1.0000    1.0000 C.3     1  LIG1        0.0000
      4 C4          1.8776    1.8776    1.8776 C.2     1  LIG1        0.0000
      5 C5          1.7932    1.7932    3.1721 C.2     1  LIG1        0.0000
      6 C6          2.6307    2.6307    4.0096 C.3     1  LIG1        0.0000
      7 C7          2.5331    4.0155    3.9119 C.3     1  LIG1        0.0000
      8 C8          3.3323    4.8266    4.7105 C.3     1  LIG1        0.0000
      9 C9          4.2236    4.2353    5.5995 C.3     1  LIG1        0.0000
     10 N10         5.0313    5.0464    6.4059 N.pl3   1  LIG1        1.0000
     11 O11         5.8101    4.5427    7.1829 O.2     1  LIG1        0.0000
     12 O12         4.9497    6.2610    6.3251 O.2     1  LIG1       -1.0000
     13 C13         4.3287    2.8524    5.7037 C.3     1  LIG1        0.0000
     14 C14         3.5246    2.0487    4.9020 C.3     1  LIG1        0.0000
     15 C15         2.8106    2.8106    1.2697 C.2     1  LIG1        0.0000
     16 N16         3.6349    3.6347    1.8719 N.2     1  LIG1        0.0000
     17 C17         4.4195    4.4188    1.0581 C.3     1  LIG1        0.0000
     18 C18         5.3905    5.3834    1.3127 C.3     1  LIG1        0.0000
     19 C19         6.0554    6.0465    0.2849 C.3     1  LIG1        0.0000
     20 C20         5.7792    5.7735   -1.0523 C.3     1  LIG1        0.0000
     21 C21         4.8232    4.8219   -1.3671 C.3     1  LIG1        0.0000
     22 C22         4.2103    4.2120   -0.2857 C.3     1  LIG1        0.0000
     23 S23         3.0119    3.0119   -0.4081 S.3     1  LIG1        0.0000
     24 N24        -0.7766    1.2918   -0.7766 N.am    1  LIG1        0.0000
     25 C25        -0.8543   -0.1759   -0.8543 C.3     1  LIG1        0.0000
     26 C26        -1.1831   -0.6472   -2.2634 C.3     1  LIG1        0.0000
     27 N27        -2.2768    0.1315   -2.8692 N.3     1  LIG1        0.0000
     28 C28        -2.4676   -0.3538   -4.2434 C.3     1  LIG1        0.0000
     29 C29        -1.2801    0.0613   -5.0968 C.3     1  LIG1        0.0000
     30 C30        -1.3381    1.2849   -5.7554 C.3     1  LIG1        0.0000
     31 C31        -0.2554    1.6720   -6.5376 C.3     1  LIG1        0.0000
     32 C32         0.8539    0.8408   -6.6496 C.3     1  LIG1        0.0000
     33 C33         0.8493   -0.3701   -5.9654 C.3     1  LIG1        0.0000
     34 N34        -0.2023   -0.7286   -5.2143 N.pl3   1  LIG1        0.0000
     35 C35        -1.8785    1.5442   -2.9800 C.3     1  LIG1        0.0000
     36 C36        -1.6053    2.1687   -1.6191 C.3     1  LIG1        0.0000
     37 H           0.4226    0.4226    1.5774 H       1  LIG1        0.0000
     38 H           1.5774    0.4226    0.4226 H       1  LIG1        0.0000
     39 H           1.1510    1.1510    3.5905 H       1  LIG1        0.0000
     40 H           1.8885    4.4273    3.2678 H       1  LIG1        0.0000
     41 H           3.2669    5.8223    4.6463 H       1  LIG1        0.0000
     42 H           4.9744    2.4409    6.3470 H       1  LIG1        0.0000
     43 H           3.5892    1.0529    4.9674 H       1  LIG1        0.0000
     44 H           5.6168    5.6064    2.2609 H       1  LIG1        0.0000
     45 H           6.7459    6.7333    0.5117 H       1  LIG1        0.0000
     46 H           6.2661    6.2596   -1.7780 H       1  LIG1        0.0000
     47 H           4.5913    4.5908   -2.3120 H       1  LIG1        0.0000
     48 H          -1.5672   -0.4963   -0.2305 H       1  LIG1        0.0000
     49 H           0.0265   -0.5621   -0.5804 H       1  LIG1        0.0000
     50 H          -0.3668   -0.5531   -2.8332 H       1  LIG1        0.0000
     51 H          -1.4547   -1.6089   -2.2262 H       1  LIG1        0.0000
     52 H          -3.3047    0.0402   -4.6229 H       1  LIG1        0.0000
     53 H          -2.5415   -1.3511   -4.2375 H       1  LIG1        0.0000
     54 H          -2.1414    1.8740   -5.6683 H       1  LIG1        0.0000
     55 H          -0.2746    2.5480   -7.0196 H       1  LIG1        0.0000
     56 H           1.6379    1.1080   -7.2099 H       1  LIG1        0.0000
     57 H           1.6388   -0.9801   -6.0343 H       1  LIG1        0.0000
     58 H          -2.6145    2.0529   -3.4267 H       1  LIG1        0.0000
     59 H          -1.0484    1.6029   -3.5345 H       1  LIG1        0.0000
     60 H          -1.1282    3.0376   -1.7508 H       1  LIG1        0.0000
     61 H          -2.4767    2.3337   -1.1570 H       1  LIG1        0.0000
@<TRIPOS>BOND
     1     1     2    2
     2     2     3    1
     3     3     4    1
     4     4     5    2
     5     5     6    1
     6     6     7   ar
     7     7     8   ar
     8     8     9   ar
     9     9    10    1
    10    10    11   ar
    11    10    12   ar
    12     9    13   ar
    13    13    14   ar
    14    14     6   ar
    15     4    15    1
    16    15    16    2
    17    16    17    1
    18    17    18   ar
    19    18    19   ar
    20    19    20   ar
    21    20    21   ar
    22    21    22   ar
    23    22    17   ar
    24    22    23    1
    25    23    15    1
    26     2    24   am
    27    24    25    1
    28    25    26    1
    29    26    27    1
    30    27    28    1
    31    28    29    1
    32    29    30   ar
    33    30    31   ar
    34    31    32   ar
    35    32    33   ar
    36    33    34   ar
    37    34    29   ar
    38    27    35    1
    39    35    36    1
    40    36    24    1
    41     3    37    1
    42     3    38    1
    43     5    39    1
    44     7    40    1
    45     8    41    1
    46    13    42    1
    47    14    43    1
    48    18    44    1
    49    19    45    1
    50    20    46    1
    51    21    47    1
    52    25    48    1
    53    25    49    1
    54    26    50    1
    55    26    51    1
    56    28    52    1
    57    28    53    1
    58    30    54    1
    59    31    55    1
    60    32    56    1
    61    33    57    1
    62    35    58    1
    63    35    59    1
    64    36    60    1
    65    36    61    1
