@<TRIPOS>MOLECULE
*****
 61 65 0 0 0
SMALL
USER_CHARGES

@<TRIPOS>ATOM
      1 O1          0.2003    3.0725    0.2003 O.2     1  LIG1        0.0000
      2 C2          0.1224    1.8776    0.1224 C.2     1  LIG1        0.0000
      3 C3          1.0000    1.0000    1.0000 C.3     1  LIG1        0.0000
      4 C4          1.8776    1.8776    1.8776 C.2     1  LIG1        0.0000
      5 C5          3.1721    1.7932    1.7932 C.2     1  LIG1        0.0000
      6 C6          4.0096    2.6307    2.6307 C.3     1  LIG1        0.0000
      7 C7          3.9119    4.0155    2.5331 C.3     1  LIG1        0.0000
      8 C8          4.7112    4.8266    3.3316 C.3     1  LIG1        0.0000
      9 C9          5.6025    4.2353    4.2206 C.3     1  LIG1        0.0000
     10 N10         6.4101    5.0464    5.0270 N.pl3   1  LIG1        1.0000
     11 O11         7.1890    4.5427    5.8041 O.2     1  LIG1        0.0000
     12 O12         6.3286    6.2610    4.9462 O.2     1  LIG1       -1.0000
     13 C13         5.7076    2.8524    4.3249 C.3     1  LIG1        0.0000
     14 C14         4.9034    2.0487    3.5232 C.3     1  LIG1        0.0000
     15 C15         1.2697    2.8106    2.8106 C.2     1  LIG1        0.0000
     16 N16         1.8719    3.6349    3.6347 N.2     1  LIG1        0.0000
     17 C17         1.0581    4.4195    4.4188 C.3     1  LIG1        0.0000
     18 C18         1.3127    5.3905    5.3834 C.3     1  LIG1        0.0000
     19 C19         0.2849    6.0554    6.0465 C.3     1  LIG1        0.0000
     20 C20        -1.0523    5.7792    5.7735 C.3     1  LIG1        0.0000
     21 C21        -1.3671    4.8232    4.8219 C.3     1  LIG1        0.0000
     22 C22        -0.2857    4.2103    4.2120 C.3     1  LIG1        0.0000
     23 S23        -0.4081    3.0119    3.0119 S.3     1  LIG1        0.0000
     24 N24        -0.7763    1.2920   -0.7763 N.am    1  LIG1        0.0000
     25 C25        -0.8452   -0.1764   -0.8452 C.3     1  LIG1        0.0000
     26 C26        -2.2527   -0.6550   -1.1724 C.3     1  LIG1        0.0000
     27 N27        -2.8606    0.1126   -2.2716 N.3     1  LIG1        0.0000
     28 C28        -4.2243   -0.4040   -2.4592 C.3     1  LIG1        0.0000
     29 C29        -4.1593   -1.8047   -3.0462 C.3     1  LIG1        0.0000
     30 C30        -4.1078   -2.8841   -2.1706 C.3     1  LIG1        0.0000
     31 C31        -4.0488   -4.1686   -2.6998 C.3     1  LIG1        0.0000
     32 C32        -4.0408   -4.3530   -4.0782 C.3     1  LIG1        0.0000
     33 C33        -4.0942   -3.2317   -4.8995 C.3     1  LIG1        0.0000
     34 N34        -4.1518   -1.9995   -4.3734 N.pl3   1  LIG1        0.0000
     35 C35        -2.9801    1.5279   -1.8839 C.3     1  LIG1        0.0000
     36 C36        -1.6261    2.1635   -1.6040 C.3     1  LIG1        0.0000
     37 H           0.4226    0.4226    1.5774 H       1  LIG1        0.0000
     38 H           1.5774    0.4226    0.4226 H       1  LIG1        0.0000
     39 H           3.5905    1.1510    1.1510 H       1  LIG1        0.0000
     40 H           3.2673    4.4273    1.8889 H       1  LIG1        0.0000
     41 H           4.6458    5.8223    3.2675 H       1  LIG1        0.0000
     42 H           6.3533    2.4409    4.9681 H       1  LIG1        0.0000
     43 H           4.9680    1.0529    3.5886 H       1  LIG1        0.0000
     44 H           2.2609    5.6168    5.6064 H       1  LIG1        0.0000
     45 H           0.5117    6.7459    6.7333 H       1  LIG1        0.0000
     46 H          -1.7780    6.2661    6.2596 H       1  LIG1        0.0000
     47 H          -2.3120    4.5913    4.5908 H       1  LIG1        0.0000
     48 H          -0.5701   -0.5562    0.0380 H       1  LIG1        0.0000
     49 H          -0.2194   -0.4979   -1.5559 H       1  LIG1        0.0000
     50 H          -2.2118   -1.6185   -1.4368 H       1  LIG1        0.0000
     51 H          -2.8236   -0.5570   -0.3572 H       1  LIG1        0.0000
     52 H          -4.7252    0.1960   -3.0831 H       1  LIG1        0.0000
     53 H          -4.6938   -0.4339   -1.5767 H       1  LIG1        0.0000
     54 H          -4.1132   -2.7394   -1.1811 H       1  LIG1        0.0000
     55 H          -4.0120   -4.9598   -2.0893 H       1  LIG1        0.0000
     56 H          -3.9975   -5.2718   -4.4705 H       1  LIG1        0.0000
     57 H          -4.0897   -3.3457   -5.8929 H       1  LIG1        0.0000
     58 H          -3.5415    1.5894   -1.0587 H       1  LIG1        0.0000
     59 H          -3.4236    2.0290   -2.6270 H       1  LIG1        0.0000
     60 H          -1.1633    2.3365   -2.4734 H       1  LIG1        0.0000
     61 H          -1.7676    3.0291   -1.1236 H       1  LIG1        0.0000
@<TRIPOS>BOND
     1     1     2    2
     2     2     3    1
     3     3     4    1
     4     4     5    2
     5     5     6    1
     6     6     7   ar
     7     7     8   ar
     8     8     9   ar
     9     9    10    1
    10    10    11   ar
    11    10    12   ar
    12     9    13   ar
    13    13    14   ar
    14    14     6   ar
    15     4    15    1
    16    15    16    2
    17    16    17    1
    18    17    18   ar
    19    18    19   ar
    20    19    20   ar
    21    20    21   ar
    22    21    22   ar
    23    22    17   ar
    24    22    23    1
    25    23    15    1
    26     2    24   am
    27    24    25    1
    28    25    26    1
    29    26    27    1
    30    27    28    1
    31    28    29    1
    32    29    30   ar
    33    30    31   ar
    34    31    32   ar
    35    32    33   ar
    36    33    34   ar
    37    34    29   ar
    38    27    35    1
    39    35    36    1
    40    36    24    1
    41     3    37    1
    42     3    38    1
    43     5    39    1
    44     7    40    1
    45     8    41    1
    46    13    42    1
    47    14    43    1
    48    18    44    1
    49    19    45    1
    50    20    46    1
    51    21    47    1
    52    25    48    1
    53    25    49    1
    54    26    50    1
    55    26    51    1
    56    28    52    1
    57    28    53    1
    58    30    54    1
    59    31    55    1
    60    32    56    1
    61    33    57    1
    62    35    58    1
    63    35    59    1
    64    36    60    1
    65    36    61    1
