@<TRIPOS>MOLECULE
*****
 61 65 0 0 0
SMALL
USER_CHARGES

@<TRIPOS>ATOM
      1 O1          0.2003    3.0725    0.2003 O.2     1  LIG1        0.0000
      2 C2          0.1224    1.8776    0.1224 C.2     1  LIG1        0.0000
      3 C3          1.0000    1.0000    1.0000 C.3     1  LIG1        0.0000
      4 C4          1.8776    1.8776    1.8776 C.2     1  LIG1        0.0000
      5 C5          1.7932    1.7932    3.1721 C.2     1  LIG1        0.0000
      6 C6          2.6307    2.6307    4.0096 C.3     1  LIG1        0.0000
      7 C7          4.0155    2.5331    3.9119 C.3     1  LIG1        0.0000
      8 C8          4.8266    3.3316    4.7112 C.3     1  LIG1        0.0000
      9 C9          4.2353    4.2206    5.6025 C.3     1  LIG1        0.0000
     10 N10         5.0464    5.0270    6.4101 N.pl3   1  LIG1        1.0000
     11 O11         4.5427    5.8041    7.1890 O.2     1  LIG1        0.0000
     12 O12         6.2610    4.9462    6.3286 O.2     1  LIG1       -1.0000
     13 C13         2.8524    4.3249    5.7076 C.3     1  LIG1        0.0000
     14 C14         2.0487    3.5232    4.9034 C.3     1  LIG1        0.0000
     15 C15         2.8106    2.8106    1.2697 C.2     1  LIG1        0.0000
     16 N16         3.0224    3.0226   -0.0075 N.2     1  LIG1        0.0000
     17 C17         3.9692    3.9700   -0.3219 C.3     1  LIG1        0.0000
     18 C18         4.4581    4.4652   -1.5277 C.3     1  LIG1        0.0000
     19 C19         5.4411    5.4500   -1.5735 C.3     1  LIG1        0.0000
     20 C20         5.9830    5.9886   -0.4094 C.3     1  LIG1        0.0000
     21 C21         5.5345    5.5359    0.8205 C.3     1  LIG1        0.0000
     22 C22         4.5575    4.5558    0.7749 C.3     1  LIG1        0.0000
     23 S23         3.8431    3.8431    2.1435 S.3     1  LIG1        0.0000
     24 N24        -0.7713    1.2953   -0.7713 N.am    1  LIG1        0.0000
     25 C25        -0.8342   -0.1732   -0.8342 C.3     1  LIG1        0.0000
     26 C26        -1.1932   -0.6133   -2.2439 C.3     1  LIG1        0.0000
     27 N27        -0.9254    0.4687   -3.2034 N.3     1  LIG1        0.0000
     28 C28        -1.0400   -0.0121   -4.5877 C.3     1  LIG1        0.0000
     29 C29         0.1180   -0.9471   -4.8969 C.3     1  LIG1        0.0000
     30 C30        -0.0465   -2.3050   -4.6449 C.3     1  LIG1        0.0000
     31 C31         1.0081   -3.1668   -4.9256 C.3     1  LIG1        0.0000
     32 C32         2.1963   -2.6653   -5.4459 C.3     1  LIG1        0.0000
     33 C33         2.2968   -1.2971   -5.6751 C.3     1  LIG1        0.0000
     34 N34         1.2702   -0.4792   -5.3998 N.pl3   1  LIG1        0.0000
     35 C35        -1.8417    1.5931   -2.9603 C.3     1  LIG1        0.0000
     36 C36        -1.5699    2.2108   -1.5987 C.3     1  LIG1        0.0000
     37 H           0.4226    0.4226    1.5774 H       1  LIG1        0.0000
     38 H           1.5774    0.4226    0.4226 H       1  LIG1        0.0000
     39 H           1.1510    1.1510    3.5905 H       1  LIG1        0.0000
     40 H           4.4273    1.8889    3.2673 H       1  LIG1        0.0000
     41 H           5.8223    3.2675    4.6458 H       1  LIG1        0.0000
     42 H           2.4409    4.9681    6.3533 H       1  LIG1        0.0000
     43 H           1.0529    3.5886    4.9680 H       1  LIG1        0.0000
     44 H           4.0928    4.1033   -2.3853 H       1  LIG1        0.0000
     45 H           5.7649    5.7774   -2.4611 H       1  LIG1        0.0000
     46 H           6.6887    6.6952   -0.4607 H       1  LIG1        0.0000
     47 H           5.8923    5.8929    1.6833 H       1  LIG1        0.0000
     48 H          -1.5299   -0.5033   -0.1962 H       1  LIG1        0.0000
     49 H           0.0556   -0.5547   -0.5839 H       1  LIG1        0.0000
     50 H          -0.6457   -1.4135   -2.4886 H       1  LIG1        0.0000
     51 H          -2.1641   -0.8506   -2.2777 H       1  LIG1        0.0000
     52 H          -1.0159    0.7669   -5.2142 H       1  LIG1        0.0000
     53 H          -1.9039   -0.5032   -4.6995 H       1  LIG1        0.0000
     54 H          -0.9052   -2.6542   -4.2697 H       1  LIG1        0.0000
     55 H           0.9120   -4.1472   -4.7534 H       1  LIG1        0.0000
     56 H           2.9619   -3.2751   -5.6508 H       1  LIG1        0.0000
     57 H           3.1437   -0.9192   -6.0491 H       1  LIG1        0.0000
     58 H          -2.7849    1.2623   -2.9899 H       1  LIG1        0.0000
     59 H          -1.7089    2.2859   -3.6691 H       1  LIG1        0.0000
     60 H          -1.0688    3.0677   -1.7197 H       1  LIG1        0.0000
     61 H          -2.4396    2.3951   -1.1409 H       1  LIG1        0.0000
@<TRIPOS>BOND
     1     1     2    2
     2     2     3    1
     3     3     4    1
     4     4     5    2
     5     5     6    1
     6     6     7   ar
     7     7     8   ar
     8     8     9   ar
     9     9    10    1
    10    10    11   ar
    11    10    12   ar
    12     9    13   ar
    13    13    14   ar
    14    14     6   ar
    15     4    15    1
    16    15    16    2
    17    16    17    1
    18    17    18   ar
    19    18    19   ar
    20    19    20   ar
    21    20    21   ar
    22    21    22   ar
    23    22    17   ar
    24    22    23    1
    25    23    15    1
    26     2    24   am
    27    24    25    1
    28    25    26    1
    29    26    27    1
    30    27    28    1
    31    28    29    1
    32    29    30   ar
    33    30    31   ar
    34    31    32   ar
    35    32    33   ar
    36    33    34   ar
    37    34    29   ar
    38    27    35    1
    39    35    36    1
    40    36    24    1
    41     3    37    1
    42     3    38    1
    43     5    39    1
    44     7    40    1
    45     8    41    1
    46    13    42    1
    47    14    43    1
    48    18    44    1
    49    19    45    1
    50    20    46    1
    51    21    47    1
    52    25    48    1
    53    25    49    1
    54    26    50    1
    55    26    51    1
    56    28    52    1
    57    28    53    1
    58    30    54    1
    59    31    55    1
    60    32    56    1
    61    33    57    1
    62    35    58    1
    63    35    59    1
    64    36    60    1
    65    36    61    1
