@<TRIPOS>MOLECULE
*****
 61 65 0 0 0
SMALL
USER_CHARGES

@<TRIPOS>ATOM
      1 O1          0.2003    3.0725    0.2003 O.2     1  LIG1        0.0000
      2 C2          0.1224    1.8776    0.1224 C.2     1  LIG1        0.0000
      3 C3          1.0000    1.0000    1.0000 C.3     1  LIG1        0.0000
      4 C4          1.8776    1.8776    1.8776 C.2     1  LIG1        0.0000
      5 C5          1.7932    1.7932    3.1721 C.2     1  LIG1        0.0000
      6 C6          2.6307    2.6307    4.0096 C.3     1  LIG1        0.0000
      7 C7          4.0155    2.5331    3.9119 C.3     1  LIG1        0.0000
      8 C8          4.8266    3.3316    4.7112 C.3     1  LIG1        0.0000
      9 C9          4.2353    4.2206    5.6025 C.3     1  LIG1        0.0000
     10 N10         5.0464    5.0270    6.4101 N.pl3   1  LIG1        1.0000
     11 O11         4.5427    5.8041    7.1890 O.2     1  LIG1        0.0000
     12 O12         6.2610    4.9462    6.3286 O.2     1  LIG1       -1.0000
     13 C13         2.8524    4.3249    5.7076 C.3     1  LIG1        0.0000
     14 C14         2.0487    3.5232    4.9034 C.3     1  LIG1        0.0000
     15 C15         2.8106    2.8106    1.2697 C.2     1  LIG1        0.0000
     16 N16         3.0224    3.0226   -0.0075 N.2     1  LIG1        0.0000
     17 C17         3.9692    3.9700   -0.3219 C.3     1  LIG1        0.0000
     18 C18         4.4581    4.4652   -1.5277 C.3     1  LIG1        0.0000
     19 C19         5.4411    5.4500   -1.5735 C.3     1  LIG1        0.0000
     20 C20         5.9830    5.9886   -0.4094 C.3     1  LIG1        0.0000
     21 C21         5.5345    5.5359    0.8205 C.3     1  LIG1        0.0000
     22 C22         4.5575    4.5558    0.7749 C.3     1  LIG1        0.0000
     23 S23         3.8431    3.8431    2.1435 S.3     1  LIG1        0.0000
     24 N24        -0.7814    1.2887   -0.7814 N.am    1  LIG1        0.0000
     25 C25        -1.6488    2.0977   -1.6488 C.3     1  LIG1        0.0000
     26 C26        -2.8985    1.2629   -1.8790 C.3     1  LIG1        0.0000
     27 N27        -2.6217    0.0687   -2.6939 N.3     1  LIG1        0.0000
     28 C28        -2.6868    0.3369   -4.1379 C.3     1  LIG1        0.0000
     29 C29        -4.1300    0.5926   -4.5412 C.3     1  LIG1        0.0000
     30 C30        -4.9070   -0.4931   -4.9311 C.3     1  LIG1        0.0000
     31 C31        -6.2284   -0.2675   -5.3010 C.3     1  LIG1        0.0000
     32 C32        -6.7464    1.0229   -5.2773 C.3     1  LIG1        0.0000
     33 C33        -5.9169    2.0653   -4.8775 C.3     1  LIG1        0.0000
     34 N34        -4.6449    1.8311   -4.5229 N.pl3   1  LIG1        0.0000
     35 C35        -1.2813   -0.4469   -2.3677 C.3     1  LIG1        0.0000
     36 C36        -0.9157   -0.1673   -0.9171 C.3     1  LIG1        0.0000
     37 H           0.4226    0.4226    1.5774 H       1  LIG1        0.0000
     38 H           1.5774    0.4226    0.4226 H       1  LIG1        0.0000
     39 H           1.1510    1.1510    3.5905 H       1  LIG1        0.0000
     40 H           4.4273    1.8889    3.2673 H       1  LIG1        0.0000
     41 H           5.8223    3.2675    4.6458 H       1  LIG1        0.0000
     42 H           2.4409    4.9681    6.3533 H       1  LIG1        0.0000
     43 H           1.0529    3.5886    4.9680 H       1  LIG1        0.0000
     44 H           4.0928    4.1033   -2.3853 H       1  LIG1        0.0000
     45 H           5.7649    5.7774   -2.4611 H       1  LIG1        0.0000
     46 H           6.6887    6.6952   -0.4607 H       1  LIG1        0.0000
     47 H           5.8923    5.8929    1.6833 H       1  LIG1        0.0000
     48 H          -1.1921    2.2881   -2.5178 H       1  LIG1        0.0000
     49 H          -1.8837    2.9598   -1.1998 H       1  LIG1        0.0000
     50 H          -3.2605    0.9725   -0.9932 H       1  LIG1        0.0000
     51 H          -3.5794    1.8241   -2.3496 H       1  LIG1        0.0000
     52 H          -2.3354   -0.4533   -4.6399 H       1  LIG1        0.0000
     53 H          -2.1331    1.1415   -4.3528 H       1  LIG1        0.0000
     54 H          -4.5235   -1.4165   -4.9451 H       1  LIG1        0.0000
     55 H          -6.8061   -1.0331   -5.5839 H       1  LIG1        0.0000
     56 H          -7.6948    1.1976   -5.5420 H       1  LIG1        0.0000
     57 H          -6.2728    2.9995   -4.8542 H       1  LIG1        0.0000
     58 H          -0.6096   -0.0062   -2.9631 H       1  LIG1        0.0000
     59 H          -1.2665   -1.4348   -2.5222 H       1  LIG1        0.0000
     60 H          -1.6359   -0.5038   -0.3104 H       1  LIG1        0.0000
     61 H          -0.0511   -0.6148   -0.6884 H       1  LIG1        0.0000
@<TRIPOS>BOND
     1     1     2    2
     2     2     3    1
     3     3     4    1
     4     4     5    2
     5     5     6    1
     6     6     7   ar
     7     7     8   ar
     8     8     9   ar
     9     9    10    1
    10    10    11   ar
    11    10    12   ar
    12     9    13   ar
    13    13    14   ar
    14    14     6   ar
    15     4    15    1
    16    15    16    2
    17    16    17    1
    18    17    18   ar
    19    18    19   ar
    20    19    20   ar
    21    20    21   ar
    22    21    22   ar
    23    22    17   ar
    24    22    23    1
    25    23    15    1
    26     2    24   am
    27    24    25    1
    28    25    26    1
    29    26    27    1
    30    27    28    1
    31    28    29    1
    32    29    30   ar
    33    30    31   ar
    34    31    32   ar
    35    32    33   ar
    36    33    34   ar
    37    34    29   ar
    38    27    35    1
    39    35    36    1
    40    36    24    1
    41     3    37    1
    42     3    38    1
    43     5    39    1
    44     7    40    1
    45     8    41    1
    46    13    42    1
    47    14    43    1
    48    18    44    1
    49    19    45    1
    50    20    46    1
    51    21    47    1
    52    25    48    1
    53    25    49    1
    54    26    50    1
    55    26    51    1
    56    28    52    1
    57    28    53    1
    58    30    54    1
    59    31    55    1
    60    32    56    1
    61    33    57    1
    62    35    58    1
    63    35    59    1
    64    36    60    1
    65    36    61    1
