@<TRIPOS>MOLECULE

  32   33
SMALL
USER_CHARGES
@<TRIPOS>ATOM
   1 C1           4.4511    -0.7239     0.1223 C.2          1    LIG   0.0000
   2 C2           3.3314    -0.4134     0.7620 C.2          1    LIG   0.0000
   3 C3           2.8096     1.0000     1.0000 C.3          1    LIG   0.0000
   4 S4           1.0000     1.0000     1.0000 S.3          1    LIG   0.0000
   5 C5           0.6203     2.6751     1.2821 C.ar         1    LIG   0.0000
   6 C6          -0.3625     3.0204     2.2037 C.ar         1    LIG   0.0000
   7 C7          -0.6458     4.3668     2.4101 C.ar         1    LIG   0.0000
   8 N8           0.0211     5.3104     1.7275 N.ar         1    LIG   0.0000
   9 C9           0.9714     4.9989     0.8345 C.ar         1    LIG   0.0000
  10 C10          1.2981     3.6700     0.5865 C.ar         1    LIG   0.0000
  11 C11          3.3141     1.6263     2.3007 C.3          1    LIG   0.0000
  12 C12          4.8215     1.5562     2.5335 C.3          1    LIG   0.0000
  13 C13          5.7052     2.0826     1.4069 C.3          1    LIG   0.0000
  14 C14          6.3117     1.0208     0.4847 C.3          1    LIG   0.0000
  15 C15          5.3666     0.3317    -0.4900 C.3          1    LIG   0.0000
  16 H            3.1179     1.5742     0.2415 H            1    LIG   0.0000
  17 H            4.7050    -1.6875     0.0381 H            1    LIG   0.0000
  18 H            2.7830    -1.1698     1.1183 H            1    LIG   0.0000
  19 H           -0.8568     2.3132     2.7091 H            1    LIG   0.0000
  20 H           -1.3490     4.6325     3.0696 H            1    LIG   0.0000
  21 H            1.4487     5.7274     0.3431 H            1    LIG   0.0000
  22 H            2.0065     3.4348    -0.0790 H            1    LIG   0.0000
  23 H            2.8644     1.1576     3.0611 H            1    LIG   0.0000
  24 H            3.0486     2.5904     2.2997 H            1    LIG   0.0000
  25 H            5.0618     0.5977     2.6866 H            1    LIG   0.0000
  26 H            5.0278     2.0870     3.3556 H            1    LIG   0.0000
  27 H            5.1521     2.6975     0.8448 H            1    LIG   0.0000
  28 H            6.4573     2.5955     1.8208 H            1    LIG   0.0000
  29 H            7.0301     1.4625    -0.0526 H            1    LIG   0.0000
  30 H            6.7162     0.3132     1.0642 H            1    LIG   0.0000
  31 H            4.7909     1.0334    -0.9098 H            1    LIG   0.0000
  32 H            5.9199    -0.1114    -1.1953 H            1    LIG   0.0000
@<TRIPOS>BOND
   1        1        2 2
   2        2        3 1
   3        3        4 1
   4        4        5 1
   5        5        6 ar
   6        6        7 ar
   7        7        8 ar
   8        8        9 ar
   9        9       10 ar
  10       10        5 ar
  11        3       11 1
  12       11       12 1
  13       12       13 1
  14       13       14 1
  15       14       15 1
  16       15        1 1
  17        3       16 1
  18        1       17 1
  19        2       18 1
  20        6       19 1
  21        7       20 1
  22        9       21 1
  23       10       22 1
  24       11       23 1
  25       11       24 1
  26       12       25 1
  27       12       26 1
  28       13       27 1
  29       13       28 1
  30       14       29 1
  31       14       30 1
  32       15       31 1
  33       15       32 1

@<TRIPOS>MOLECULE

  32   33
SMALL
USER_CHARGES
@<TRIPOS>ATOM
   1 C1           4.4511     2.4144    -0.3198 C.2          1    LIG   0.0000
   2 C2           3.3314     1.7071    -0.2467 C.2          1    LIG   0.0000
   3 C3           2.8096     1.0000     1.0000 C.3          1    LIG   0.0000
   4 S4           1.0000     1.0000     1.0000 S.3          1    LIG   0.0000
   5 C5           0.6203     2.6751     1.2821 C.ar         1    LIG   0.0000
   6 C6          -0.7066     3.0859     1.3513 C.ar         1    LIG   0.0000
   7 C7          -0.9821     4.4307     1.5782 C.ar         1    LIG   0.0000
   8 N8           0.0205     5.3106     1.7258 N.ar         1    LIG   0.0000
   9 C9           1.3061     4.9354     1.6620 C.ar         1    LIG   0.0000
  10 C10          1.6425     3.6047     1.4380 C.ar         1    LIG   0.0000
  11 C11          3.3141    -0.4365     1.1437 C.3          1    LIG   0.0000
  12 C12          4.8215    -0.6313     0.9982 C.3          1    LIG   0.0000
  13 C13          5.7052     0.2474     1.8782 C.3          1    LIG   0.0000
  14 C14          6.3117     1.4771     1.1958 C.3          1    LIG   0.0000
  15 C15          5.3666     2.6287     0.8816 C.3          1    LIG   0.0000
  16 H            3.1179     1.5163     1.7990 H            1    LIG   0.0000
  17 H            4.7050     2.8230    -1.1964 H            1    LIG   0.0000
  18 H            2.7830     1.6309    -1.0794 H            1    LIG   0.0000
  19 H           -1.4499     2.4262     1.2399 H            1    LIG   0.0000
  20 H           -1.9306     4.7429     1.6314 H            1    LIG   0.0000
  21 H            2.0284     5.6175     1.7763 H            1    LIG   0.0000
  22 H            2.6005     3.3220     1.3901 H            1    LIG   0.0000
  23 H            2.8644    -0.9907     0.4431 H            1    LIG   0.0000
  24 H            3.0486    -0.7653     2.0500 H            1    LIG   0.0000
  25 H            5.0618    -0.4473     0.0451 H            1    LIG   0.0000
  26 H            5.0278    -1.5853     1.2157 H            1    LIG   0.0000
  27 H            5.1521     0.5653     2.6482 H            1    LIG   0.0000
  28 H            6.4573    -0.3170     2.2185 H            1    LIG   0.0000
  29 H            7.0301     1.8310     1.7946 H            1    LIG   0.0000
  30 H            6.7162     1.1745     0.3327 H            1    LIG   0.0000
  31 H            4.7909     2.7832     1.6846 H            1    LIG   0.0000
  32 H            5.9199     3.4430     0.7065 H            1    LIG   0.0000
@<TRIPOS>BOND
   1        1        2 2
   2        2        3 1
   3        3        4 1
   4        4        5 1
   5        5        6 ar
   6        6        7 ar
   7        7        8 ar
   8        8        9 ar
   9        9       10 ar
  10       10        5 ar
  11        3       11 1
  12       11       12 1
  13       12       13 1
  14       13       14 1
  15       14       15 1
  16       15        1 1
  17        3       16 1
  18        1       17 1
  19        2       18 1
  20        6       19 1
  21        7       20 1
  22        9       21 1
  23       10       22 1
  24       11       23 1
  25       11       24 1
  26       12       25 1
  27       12       26 1
  28       13       27 1
  29       13       28 1
  30       14       29 1
  31       14       30 1
  32       15       31 1
  33       15       32 1

@<TRIPOS>MOLECULE

  32   33
SMALL
USER_CHARGES
@<TRIPOS>ATOM
   1 C1           4.4511     2.4144    -0.3198 C.2          1    LIG   0.0000
   2 C2           3.3314     1.7071    -0.2467 C.2          1    LIG   0.0000
   3 C3           2.8096     1.0000     1.0000 C.3          1    LIG   0.0000
   4 S4           1.0000     1.0000     1.0000 S.3          1    LIG   0.0000
   5 C5           0.6203     2.6751     1.2821 C.ar         1    LIG   0.0000
   6 C6           0.4685     3.1450     2.5823 C.ar         1    LIG   0.0000
   7 C7           0.1654     4.4885     2.7795 C.ar         1    LIG   0.0000
   8 N8           0.0227     5.3106     1.7283 N.ar         1    LIG   0.0000
   9 C9           0.1643     4.8778     0.4673 C.ar         1    LIG   0.0000
  10 C10          0.4677     3.5454     0.2085 C.ar         1    LIG   0.0000
  11 C11          3.3141    -0.4365     1.1437 C.3          1    LIG   0.0000
  12 C12          4.8215    -0.6313     0.9982 C.3          1    LIG   0.0000
  13 C13          5.7052     0.2474     1.8782 C.3          1    LIG   0.0000
  14 C14          6.3117     1.4771     1.1958 C.3          1    LIG   0.0000
  15 C15          5.3666     2.6287     0.8816 C.3          1    LIG   0.0000
  16 H            3.1179     1.5163     1.7990 H            1    LIG   0.0000
  17 H            4.7050     2.8230    -1.1964 H            1    LIG   0.0000
  18 H            2.7830     1.6309    -1.0794 H            1    LIG   0.0000
  19 H            0.5752     2.5279     3.3619 H            1    LIG   0.0000
  20 H            0.0535     4.8429     3.7078 H            1    LIG   0.0000
  21 H            0.0509     5.5177    -0.2927 H            1    LIG   0.0000
  22 H            0.5739     3.2198    -0.7310 H            1    LIG   0.0000
  23 H            2.8644    -0.9907     0.4431 H            1    LIG   0.0000
  24 H            3.0486    -0.7653     2.0500 H            1    LIG   0.0000
  25 H            5.0618    -0.4473     0.0451 H            1    LIG   0.0000
  26 H            5.0278    -1.5853     1.2157 H            1    LIG   0.0000
  27 H            5.1521     0.5653     2.6482 H            1    LIG   0.0000
  28 H            6.4573    -0.3170     2.2185 H            1    LIG   0.0000
  29 H            7.0301     1.8310     1.7946 H            1    LIG   0.0000
  30 H            6.7162     1.1745     0.3327 H            1    LIG   0.0000
  31 H            4.7909     2.7832     1.6846 H            1    LIG   0.0000
  32 H            5.9199     3.4430     0.7065 H            1    LIG   0.0000
@<TRIPOS>BOND
   1        1        2 2
   2        2        3 1
   3        3        4 1
   4        4        5 1
   5        5        6 ar
   6        6        7 ar
   7        7        8 ar
   8        8        9 ar
   9        9       10 ar
  10       10        5 ar
  11        3       11 1
  12       11       12 1
  13       12       13 1
  14       13       14 1
  15       14       15 1
  16       15        1 1
  17        3       16 1
  18        1       17 1
  19        2       18 1
  20        6       19 1
  21        7       20 1
  22        9       21 1
  23       10       22 1
  24       11       23 1
  25       11       24 1
  26       12       25 1
  27       12       26 1
  28       13       27 1
  29       13       28 1
  30       14       29 1
  31       14       30 1
  32       15       31 1
  33       15       32 1

@<TRIPOS>MOLECULE

  32   33
SMALL
USER_CHARGES
@<TRIPOS>ATOM
   1 C1           4.4511     0.7649     2.9201 C.2          1    LIG   0.0000
   2 C2           3.3314     1.2597     2.4095 C.2          1    LIG   0.0000
   3 C3           2.8096     1.0000     1.0000 C.3          1    LIG   0.0000
   4 S4           1.0000     1.0000     1.0000 S.3          1    LIG   0.0000
   5 C5           0.6203     2.6751     1.2821 C.ar         1    LIG   0.0000
   6 C6           0.4685     3.1450     2.5823 C.ar         1    LIG   0.0000
   7 C7           0.1654     4.4885     2.7795 C.ar         1    LIG   0.0000
   8 N8           0.0227     5.3106     1.7283 N.ar         1    LIG   0.0000
   9 C9           0.1643     4.8778     0.4673 C.ar         1    LIG   0.0000
  10 C10          0.4677     3.5454     0.2085 C.ar         1    LIG   0.0000
  11 C11          3.3141     2.0081    -0.0334 C.3          1    LIG   0.0000
  12 C12          4.8215     2.2508    -0.0472 C.3          1    LIG   0.0000
  13 C13          5.7052     1.0120    -0.1565 C.3          1    LIG   0.0000
  14 C14          6.3117     0.5087     1.1567 C.3          1    LIG   0.0000
  15 C15          5.3666    -0.1716     2.1376 C.3          1    LIG   0.0000
  16 H            3.1179     0.0909     0.7198 H            1    LIG   0.0000
  17 H            4.7050     1.0153     3.8544 H            1    LIG   0.0000
  18 H            2.7830     1.8533     2.9985 H            1    LIG   0.0000
  19 H            0.5752     2.5279     3.3619 H            1    LIG   0.0000
  20 H            0.0535     4.8429     3.7078 H            1    LIG   0.0000
  21 H            0.0509     5.5177    -0.2927 H            1    LIG   0.0000
  22 H            0.5739     3.2198    -0.7310 H            1    LIG   0.0000
  23 H            2.8644     2.8829     0.1470 H            1    LIG   0.0000
  24 H            3.0486     1.6774    -0.9391 H            1    LIG   0.0000
  25 H            5.0618     2.7225     0.8012 H            1    LIG   0.0000
  26 H            5.0278     2.8418    -0.8271 H            1    LIG   0.0000
  27 H            5.1521     0.2735    -0.5420 H            1    LIG   0.0000
  28 H            6.4573     1.2256    -0.7800 H            1    LIG   0.0000
  29 H            7.0301    -0.1473     0.9255 H            1    LIG   0.0000
  30 H            6.7162     1.2952     1.6234 H            1    LIG   0.0000
  31 H            4.7909    -0.8061     1.6219 H            1    LIG   0.0000
  32 H            5.9199    -0.6828     2.7952 H            1    LIG   0.0000
@<TRIPOS>BOND
   1        1        2 2
   2        2        3 1
   3        3        4 1
   4        4        5 1
   5        5        6 ar
   6        6        7 ar
   7        7        8 ar
   8        8        9 ar
   9        9       10 ar
  10       10        5 ar
  11        3       11 1
  12       11       12 1
  13       12       13 1
  14       13       14 1
  15       14       15 1
  16       15        1 1
  17        3       16 1
  18        1       17 1
  19        2       18 1
  20        6       19 1
  21        7       20 1
  22        9       21 1
  23       10       22 1
  24       11       23 1
  25       11       24 1
  26       12       25 1
  27       12       26 1
  28       13       27 1
  29       13       28 1
  30       14       29 1
  31       14       30 1
  32       15       31 1
  33       15       32 1

@<TRIPOS>MOLECULE

  32   33
SMALL
USER_CHARGES
@<TRIPOS>ATOM
   1 C1           4.4511     0.1223     2.7239 C.2          1    LIG   0.0000
   2 C2           3.3314     0.7620     2.4134 C.2          1    LIG   0.0000
   3 C3           2.8096     1.0000     1.0000 C.3          1    LIG   0.0000
   4 S4           1.0000     1.0000     1.0000 S.3          1    LIG   0.0000
   5 C5           0.6203     2.6751     1.2821 C.ar         1    LIG   0.0000
   6 C6          -0.3625     3.3032     0.5245 C.ar         1    LIG   0.0000
   7 C7          -0.6464     4.6428     0.7709 C.ar         1    LIG   0.0000
   8 N8           0.0213     5.3110     1.7243 N.ar         1    LIG   0.0000
   9 C9           0.9724     4.7245     2.4652 C.ar         1    LIG   0.0000
  10 C10          1.2990     3.3877     2.2644 C.ar         1    LIG   0.0000
  11 C11          3.3141     2.3007     0.3737 C.3          1    LIG   0.0000
  12 C12          4.8215     2.5335     0.4438 C.3          1    LIG   0.0000
  13 C13          5.7052     1.4069    -0.0826 C.3          1    LIG   0.0000
  14 C14          6.3117     0.4847     0.9792 C.3          1    LIG   0.0000
  15 C15          5.3666    -0.4900     1.6683 C.3          1    LIG   0.0000
  16 H            3.1179     0.2415     0.4258 H            1    LIG   0.0000
  17 H            4.7050     0.0381     3.6875 H            1    LIG   0.0000
  18 H            2.7830     1.1183     3.1698 H            1    LIG   0.0000
  19 H           -0.8564     2.8007    -0.1851 H            1    LIG   0.0000
  20 H           -1.3506     5.1094     0.2357 H            1    LIG   0.0000
  21 H            1.4504     5.2522     3.1673 H            1    LIG   0.0000
  22 H            2.0079     2.9476     2.8156 H            1    LIG   0.0000
  23 H            2.8644     3.0611     0.8424 H            1    LIG   0.0000
  24 H            3.0486     2.2997    -0.5904 H            1    LIG   0.0000
  25 H            5.0618     2.6866     1.4023 H            1    LIG   0.0000
  26 H            5.0278     3.3556    -0.0870 H            1    LIG   0.0000
  27 H            5.1521     0.8448    -0.6975 H            1    LIG   0.0000
  28 H            6.4573     1.8208    -0.5955 H            1    LIG   0.0000
  29 H            7.0301    -0.0526     0.5375 H            1    LIG   0.0000
  30 H            6.7162     1.0642     1.6868 H            1    LIG   0.0000
  31 H            4.7909    -0.9098     0.9666 H            1    LIG   0.0000
  32 H            5.9199    -1.1953     2.1114 H            1    LIG   0.0000
@<TRIPOS>BOND
   1        1        2 2
   2        2        3 1
   3        3        4 1
   4        4        5 1
   5        5        6 ar
   6        6        7 ar
   7        7        8 ar
   8        8        9 ar
   9        9       10 ar
  10       10        5 ar
  11        3       11 1
  12       11       12 1
  13       12       13 1
  14       13       14 1
  15       14       15 1
  16       15        1 1
  17        3       16 1
  18        1       17 1
  19        2       18 1
  20        6       19 1
  21        7       20 1
  22        9       21 1
  23       10       22 1
  24       11       23 1
  25       11       24 1
  26       12       25 1
  27       12       26 1
  28       13       27 1
  29       13       28 1
  30       14       29 1
  31       14       30 1
  32       15       31 1
  33       15       32 1

@<TRIPOS>MOLECULE

  32   33
SMALL
USER_CHARGES
@<TRIPOS>ATOM
   1 C1           4.4931     0.1668    -0.6809 C.2          1    LIG   0.0000
   2 C2           3.3021     0.0640    -0.0982 C.2          1    LIG   0.0000
   3 C3           2.8095     1.0000     1.0000 C.3          1    LIG   0.0000
   4 S4           1.0000     1.0000     1.0000 S.3          1    LIG   0.0000
   5 C5           0.6203     2.6751     1.2821 C.ar         1    LIG   0.0000
   6 C6          -0.3625     3.3032     0.5245 C.ar         1    LIG   0.0000
   7 C7          -0.6464     4.6428     0.7709 C.ar         1    LIG   0.0000
   8 N8           0.0213     5.3110     1.7243 N.ar         1    LIG   0.0000
   9 C9           0.9724     4.7245     2.4652 C.ar         1    LIG   0.0000
  10 C10          1.2990     3.3877     2.2644 C.ar         1    LIG   0.0000
  11 C11          3.2989     0.6597     2.4057 C.3          1    LIG   0.0000
  12 C12          4.7486     1.0153     2.7392 C.3          1    LIG   0.0000
  13 C13          5.8259     0.1615     2.0703 C.3          1    LIG   0.0000
  14 C14          6.4680     0.7563     0.8157 C.3          1    LIG   0.0000
  15 C15          5.5136     1.2246    -0.2845 C.3          1    LIG   0.0000
  16 H            3.1190     1.9251     0.7800 H            1    LIG   0.0000
  17 H            4.7278    -0.4769    -1.4093 H            1    LIG   0.0000
  18 H            2.6936    -0.6707    -0.3980 H            1    LIG   0.0000
  19 H           -0.8564     2.8007    -0.1851 H            1    LIG   0.0000
  20 H           -1.3506     5.1094     0.2357 H            1    LIG   0.0000
  21 H            1.4504     5.2522     3.1673 H            1    LIG   0.0000
  22 H            2.0079     2.9476     2.8156 H            1    LIG   0.0000
  23 H            3.1932    -0.3266     2.5318 H            1    LIG   0.0000
  24 H            2.7122     1.1435     3.0551 H            1    LIG   0.0000
  25 H            4.8633     0.9304     3.7290 H            1    LIG   0.0000
  26 H            4.8998     1.9655     2.4665 H            1    LIG   0.0000
  27 H            6.5514     0.0039     2.7402 H            1    LIG   0.0000
  28 H            5.4106    -0.7121     1.8169 H            1    LIG   0.0000
  29 H            7.0149     1.5442     1.0989 H            1    LIG   0.0000
  30 H            7.0670     0.0592     0.4216 H            1    LIG   0.0000
  31 H            5.0235     2.0327     0.0423 H            1    LIG   0.0000
  32 H            6.0523     1.4652    -1.0918 H            1    LIG   0.0000
@<TRIPOS>BOND
   1        1        2 2
   2        2        3 1
   3        3        4 1
   4        4        5 1
   5        5        6 ar
   6        6        7 ar
   7        7        8 ar
   8        8        9 ar
   9        9       10 ar
  10       10        5 ar
  11        3       11 1
  12       11       12 1
  13       12       13 1
  14       13       14 1
  15       14       15 1
  16       15        1 1
  17        3       16 1
  18        1       17 1
  19        2       18 1
  20        6       19 1
  21        7       20 1
  22        9       21 1
  23       10       22 1
  24       11       23 1
  25       11       24 1
  26       12       25 1
  27       12       26 1
  28       13       27 1
  29       13       28 1
  30       14       29 1
  31       14       30 1
  32       15       31 1
  33       15       32 1

@<TRIPOS>MOLECULE

  32   33
SMALL
USER_CHARGES
@<TRIPOS>ATOM
   1 C1           3.9092    -1.2676     1.6349 C.2          1    LIG   0.0000
   2 C2           3.3932    -0.3924     0.7655 C.2          1    LIG   0.0000
   3 C3           2.8097     1.0000     1.0000 C.3          1    LIG   0.0000
   4 S4           1.0000     1.0000     1.0000 S.3          1    LIG   0.0000
   5 C5           0.6203     2.6751     1.2821 C.ar         1    LIG   0.0000
   6 C6          -0.3625     3.0204     2.2037 C.ar         1    LIG   0.0000
   7 C7          -0.6458     4.3668     2.4101 C.ar         1    LIG   0.0000
   8 N8           0.0211     5.3104     1.7275 N.ar         1    LIG   0.0000
   9 C9           0.9714     4.9989     0.8345 C.ar         1    LIG   0.0000
  10 C10          1.2981     3.6700     0.5865 C.ar         1    LIG   0.0000
  11 C11          3.2078     1.7218     2.2828 C.3          1    LIG   0.0000
  12 C12          4.7113     1.9109     2.4282 C.3          1    LIG   0.0000
  13 C13          5.2118     1.1549     3.6491 C.3          1    LIG   0.0000
  14 C14          5.3670    -0.3530     3.5038 C.3          1    LIG   0.0000
  15 C15          4.1068    -1.1283     3.1355 C.3          1    LIG   0.0000
  16 H            3.1036     1.5744     0.2361 H            1    LIG   0.0000
  17 H            4.2076    -2.1374     1.2419 H            1    LIG   0.0000
  18 H            3.3885    -0.6968    -0.1870 H            1    LIG   0.0000
  19 H           -0.8568     2.3132     2.7091 H            1    LIG   0.0000
  20 H           -1.3490     4.6325     3.0696 H            1    LIG   0.0000
  21 H            1.4487     5.7274     0.3431 H            1    LIG   0.0000
  22 H            2.0065     3.4348    -0.0790 H            1    LIG   0.0000
  23 H            2.8786     1.1884     3.0619 H            1    LIG   0.0000
  24 H            2.7731     2.6224     2.2878 H            1    LIG   0.0000
  25 H            4.9145     2.8842     2.5345 H            1    LIG   0.0000
  26 H            5.1700     1.5619     1.6109 H            1    LIG   0.0000
  27 H            6.1066     1.5297     3.8917 H            1    LIG   0.0000
  28 H            4.5669     1.3227     4.3947 H            1    LIG   0.0000
  29 H            6.0482    -0.5222     2.7914 H            1    LIG   0.0000
  30 H            5.7010    -0.7105     4.3759 H            1    LIG   0.0000
  31 H            4.1680    -2.0432     3.5347 H            1    LIG   0.0000
  32 H            3.3160    -0.6501     3.5175 H            1    LIG   0.0000
@<TRIPOS>BOND
   1        1        2 2
   2        2        3 1
   3        3        4 1
   4        4        5 1
   5        5        6 ar
   6        6        7 ar
   7        7        8 ar
   8        8        9 ar
   9        9       10 ar
  10       10        5 ar
  11        3       11 1
  12       11       12 1
  13       12       13 1
  14       13       14 1
  15       14       15 1
  16       15        1 1
  17        3       16 1
  18        1       17 1
  19        2       18 1
  20        6       19 1
  21        7       20 1
  22        9       21 1
  23       10       22 1
  24       11       23 1
  25       11       24 1
  26       12       25 1
  27       12       26 1
  28       13       27 1
  29       13       28 1
  30       14       29 1
  31       14       30 1
  32       15       31 1
  33       15       32 1

@<TRIPOS>MOLECULE

  32   33
SMALL
USER_CHARGES
@<TRIPOS>ATOM
   1 C1           3.9092    -0.6836    -0.6464 C.2          1    LIG   0.0000
   2 C2           3.3932     0.5069    -0.3231 C.2          1    LIG   0.0000
   3 C3           2.8097     1.0000     1.0000 C.3          1    LIG   0.0000
   4 S4           1.0000     1.0000     1.0000 S.3          1    LIG   0.0000
   5 C5           0.6203     2.6751     1.2821 C.ar         1    LIG   0.0000
   6 C6          -0.7066     3.0859     1.3513 C.ar         1    LIG   0.0000
   7 C7          -0.9821     4.4307     1.5782 C.ar         1    LIG   0.0000
   8 N8           0.0205     5.3106     1.7258 N.ar         1    LIG   0.0000
   9 C9           1.3061     4.9354     1.6620 C.ar         1    LIG   0.0000
  10 C10          1.6425     3.6047     1.4380 C.ar         1    LIG   0.0000
  11 C11          3.2078     0.2500     2.2665 C.3          1    LIG   0.0000
  12 C12          4.7113     0.2186     2.5029 C.3          1    LIG   0.0000
  13 C13          5.2118    -1.2167     2.4587 C.3          1    LIG   0.0000
  14 C14          5.3670    -1.8449     1.0802 C.3          1    LIG   0.0000
  15 C15          4.1068    -1.9135     0.2246 C.3          1    LIG   0.0000
  16 H            3.1036     1.9488     1.1155 H            1    LIG   0.0000
  17 H            4.2076    -0.7782    -1.5961 H            1    LIG   0.0000
  18 H            3.3885     1.1796    -1.0630 H            1    LIG   0.0000
  19 H           -1.4499     2.4262     1.2399 H            1    LIG   0.0000
  20 H           -1.9306     4.7429     1.6314 H            1    LIG   0.0000
  21 H            2.0284     5.6175     1.7763 H            1    LIG   0.0000
  22 H            2.6005     3.3220     1.3901 H            1    LIG   0.0000
  23 H            2.8786    -0.6915     2.1941 H            1    LIG   0.0000
  24 H            2.7731     0.6959     3.0489 H            1    LIG   0.0000
  25 H            4.9145     0.6132     3.3990 H            1    LIG   0.0000
  26 H            5.1700     0.7519     1.7921 H            1    LIG   0.0000
  27 H            6.1066    -1.2394     2.9045 H            1    LIG   0.0000
  28 H            4.5669    -1.7785     2.9768 H            1    LIG   0.0000
  29 H            6.0482    -1.3125     0.5775 H            1    LIG   0.0000
  30 H            5.7010    -2.7789     1.2066 H            1    LIG   0.0000
  31 H            4.1680    -2.7167    -0.3681 H            1    LIG   0.0000
  32 H            3.3160    -2.0053     0.8297 H            1    LIG   0.0000
@<TRIPOS>BOND
   1        1        2 2
   2        2        3 1
   3        3        4 1
   4        4        5 1
   5        5        6 ar
   6        6        7 ar
   7        7        8 ar
   8        8        9 ar
   9        9       10 ar
  10       10        5 ar
  11        3       11 1
  12       11       12 1
  13       12       13 1
  14       13       14 1
  15       14       15 1
  16       15        1 1
  17        3       16 1
  18        1       17 1
  19        2       18 1
  20        6       19 1
  21        7       20 1
  22        9       21 1
  23       10       22 1
  24       11       23 1
  25       11       24 1
  26       12       25 1
  27       12       26 1
  28       13       27 1
  29       13       28 1
  30       14       29 1
  31       14       30 1
  32       15       31 1
  33       15       32 1

@<TRIPOS>MOLECULE

  32   33
SMALL
USER_CHARGES
@<TRIPOS>ATOM
   1 C1           3.9092     1.1790    -1.3480 C.2          1    LIG   0.0000
   2 C2           3.3932     1.6966    -0.2282 C.2          1    LIG   0.0000
   3 C3           2.8097     1.0000     1.0000 C.3          1    LIG   0.0000
   4 S4           1.0000     1.0000     1.0000 S.3          1    LIG   0.0000
   5 C5           0.6203     2.6751     1.2821 C.ar         1    LIG   0.0000
   6 C6           0.4685     3.1450     2.5823 C.ar         1    LIG   0.0000
   7 C7           0.1654     4.4885     2.7795 C.ar         1    LIG   0.0000
   8 N8           0.0227     5.3106     1.7283 N.ar         1    LIG   0.0000
   9 C9           0.1643     4.8778     0.4673 C.ar         1    LIG   0.0000
  10 C10          0.4677     3.5454     0.2085 C.ar         1    LIG   0.0000
  11 C11          3.2078    -0.4523     1.2395 C.3          1    LIG   0.0000
  12 C12          4.7113    -0.6536     1.3675 C.3          1    LIG   0.0000
  13 C13          5.2118    -1.5423     0.2395 C.3          1    LIG   0.0000
  14 C14          5.3670    -0.8900    -1.1278 C.3          1    LIG   0.0000
  15 C15          4.1068    -0.2788    -1.7303 C.3          1    LIG   0.0000
  16 H            3.1036     1.5214     1.8011 H            1    LIG   0.0000
  17 H            4.2076     1.8458    -2.0309 H            1    LIG   0.0000
  18 H            3.3885     2.6958    -0.1885 H            1    LIG   0.0000
  19 H            0.5752     2.5279     3.3619 H            1    LIG   0.0000
  20 H            0.0535     4.8429     3.7078 H            1    LIG   0.0000
  21 H            0.0509     5.5177    -0.2927 H            1    LIG   0.0000
  22 H            0.5739     3.2198    -0.7310 H            1    LIG   0.0000
  23 H            2.8786    -1.0020     0.4718 H            1    LIG   0.0000
  24 H            2.7731    -0.7650     2.0841 H            1    LIG   0.0000
  25 H            4.9145    -1.0864     2.2458 H            1    LIG   0.0000
  26 H            5.1700     0.2337     1.3191 H            1    LIG   0.0000
  27 H            6.1066    -1.8984     0.5087 H            1    LIG   0.0000
  28 H            4.5669    -2.3003     0.1422 H            1    LIG   0.0000
  29 H            6.0482    -0.1628    -1.0431 H            1    LIG   0.0000
  30 H            5.7010    -1.5873    -1.7620 H            1    LIG   0.0000
  31 H            4.1680    -0.3410    -2.7265 H            1    LIG   0.0000
  32 H            3.3160    -0.8013    -1.4117 H            1    LIG   0.0000
@<TRIPOS>BOND
   1        1        2 2
   2        2        3 1
   3        3        4 1
   4        4        5 1
   5        5        6 ar
   6        6        7 ar
   7        7        8 ar
   8        8        9 ar
   9        9       10 ar
  10       10        5 ar
  11        3       11 1
  12       11       12 1
  13       12       13 1
  14       13       14 1
  15       14       15 1
  16       15        1 1
  17        3       16 1
  18        1       17 1
  19        2       18 1
  20        6       19 1
  21        7       20 1
  22        9       21 1
  23       10       22 1
  24       11       23 1
  25       11       24 1
  26       12       25 1
  27       12       26 1
  28       13       27 1
  29       13       28 1
  30       14       29 1
  31       14       30 1
  32       15       31 1
  33       15       32 1

@<TRIPOS>MOLECULE

  32   33
SMALL
USER_CHARGES
@<TRIPOS>ATOM
   1 C1           3.9092     2.6464    -0.6836 C.2          1    LIG   0.0000
   2 C2           3.3932     2.3231     0.5069 C.2          1    LIG   0.0000
   3 C3           2.8097     1.0000     1.0000 C.3          1    LIG   0.0000
   4 S4           1.0000     1.0000     1.0000 S.3          1    LIG   0.0000
   5 C5           0.6203     2.6751     1.2821 C.ar         1    LIG   0.0000
   6 C6          -0.3625     3.3032     0.5245 C.ar         1    LIG   0.0000
   7 C7          -0.6464     4.6428     0.7709 C.ar         1    LIG   0.0000
   8 N8           0.0213     5.3110     1.7243 N.ar         1    LIG   0.0000
   9 C9           0.9724     4.7245     2.4652 C.ar         1    LIG   0.0000
  10 C10          1.2990     3.3877     2.2644 C.ar         1    LIG   0.0000
  11 C11          3.2078    -0.2665     0.2500 C.3          1    LIG   0.0000
  12 C12          4.7113    -0.5029     0.2186 C.3          1    LIG   0.0000
  13 C13          5.2118    -0.4587    -1.2167 C.3          1    LIG   0.0000
  14 C14          5.3670     0.9198    -1.8449 C.3          1    LIG   0.0000
  15 C15          4.1068     1.7754    -1.9135 C.3          1    LIG   0.0000
  16 H            3.1036     0.8845     1.9488 H            1    LIG   0.0000
  17 H            4.2076     3.5961    -0.7782 H            1    LIG   0.0000
  18 H            3.3885     3.0630     1.1796 H            1    LIG   0.0000
  19 H           -0.8564     2.8007    -0.1851 H            1    LIG   0.0000
  20 H           -1.3506     5.1094     0.2357 H            1    LIG   0.0000
  21 H            1.4504     5.2522     3.1673 H            1    LIG   0.0000
  22 H            2.0079     2.9476     2.8156 H            1    LIG   0.0000
  23 H            2.8786    -0.1941    -0.6915 H            1    LIG   0.0000
  24 H            2.7731    -1.0489     0.6959 H            1    LIG   0.0000
  25 H            4.9145    -1.3990     0.6132 H            1    LIG   0.0000
  26 H            5.1700     0.2079     0.7519 H            1    LIG   0.0000
  27 H            6.1066    -0.9045    -1.2394 H            1    LIG   0.0000
  28 H            4.5669    -0.9768    -1.7785 H            1    LIG   0.0000
  29 H            6.0482     1.4225    -1.3125 H            1    LIG   0.0000
  30 H            5.7010     0.7934    -2.7789 H            1    LIG   0.0000
  31 H            4.1680     2.3681    -2.7167 H            1    LIG   0.0000
  32 H            3.3160     1.1703    -2.0053 H            1    LIG   0.0000
@<TRIPOS>BOND
   1        1        2 2
   2        2        3 1
   3        3        4 1
   4        4        5 1
   5        5        6 ar
   6        6        7 ar
   7        7        8 ar
   8        8        9 ar
   9        9       10 ar
  10       10        5 ar
  11        3       11 1
  12       11       12 1
  13       12       13 1
  14       13       14 1
  15       14       15 1
  16       15        1 1
  17        3       16 1
  18        1       17 1
  19        2       18 1
  20        6       19 1
  21        7       20 1
  22        9       21 1
  23       10       22 1
  24       11       23 1
  25       11       24 1
  26       12       25 1
  27       12       26 1
  28       13       27 1
  29       13       28 1
  30       14       29 1
  31       14       30 1
  32       15       31 1
  33       15       32 1

@<TRIPOS>MOLECULE

  32   33
SMALL
USER_CHARGES
@<TRIPOS>ATOM
   1 C1           3.9092     2.3721     2.9137 C.2          1    LIG   0.0000
   2 C2           3.3932     1.2559     2.3886 C.2          1    LIG   0.0000
   3 C3           2.8097     1.0000     1.0000 C.3          1    LIG   0.0000
   4 S4           1.0000     1.0000     1.0000 S.3          1    LIG   0.0000
   5 C5           0.6203     2.6751     1.2821 C.ar         1    LIG   0.0000
   6 C6           0.4685     3.1450     2.5823 C.ar         1    LIG   0.0000
   7 C7           0.1654     4.4885     2.7795 C.ar         1    LIG   0.0000
   8 N8           0.0227     5.3106     1.7283 N.ar         1    LIG   0.0000
   9 C9           0.1643     4.8778     0.4673 C.ar         1    LIG   0.0000
  10 C10          0.4677     3.5454     0.2085 C.ar         1    LIG   0.0000
  11 C11          3.2078     1.9586    -0.1170 C.3          1    LIG   0.0000
  12 C12          4.7113     2.0305    -0.3444 C.3          1    LIG   0.0000
  13 C13          5.2118     3.4363    -0.0516 C.3          1    LIG   0.0000
  14 C14          5.3670     3.8156     1.4151 C.3          1    LIG   0.0000
  15 C15          4.1068     3.7346     2.2696 C.3          1    LIG   0.0000
  16 H            3.1036     0.0857     0.7215 H            1    LIG   0.0000
  17 H            4.2076     2.3003     3.8655 H            1    LIG   0.0000
  18 H            3.3885     0.4649     3.0005 H            1    LIG   0.0000
  19 H            0.5752     2.5279     3.3619 H            1    LIG   0.0000
  20 H            0.0535     4.8429     3.7078 H            1    LIG   0.0000
  21 H            0.0509     5.5177    -0.2927 H            1    LIG   0.0000
  22 H            0.5739     3.2198    -0.7310 H            1    LIG   0.0000
  23 H            2.8786     2.8732     0.1177 H            1    LIG   0.0000
  24 H            2.7731     1.6553    -0.9650 H            1    LIG   0.0000
  25 H            4.9145     1.7975    -1.2954 H            1    LIG   0.0000
  26 H            5.1700     1.3819     0.2630 H            1    LIG   0.0000
  27 H            6.1066     3.5361    -0.4867 H            1    LIG   0.0000
  28 H            4.5669     4.0796    -0.4642 H            1    LIG   0.0000
  29 H            6.0482     3.2040     1.8176 H            1    LIG   0.0000
  30 H            5.7010     4.7574     1.4528 H            1    LIG   0.0000
  31 H            4.1680     4.4226     2.9927 H            1    LIG   0.0000
  32 H            3.3160     3.9301     1.6896 H            1    LIG   0.0000
@<TRIPOS>BOND
   1        1        2 2
   2        2        3 1
   3        3        4 1
   4        4        5 1
   5        5        6 ar
   6        6        7 ar
   7        7        8 ar
   8        8        9 ar
   9        9       10 ar
  10       10        5 ar
  11        3       11 1
  12       11       12 1
  13       12       13 1
  14       13       14 1
  15       14       15 1
  16       15        1 1
  17        3       16 1
  18        1       17 1
  19        2       18 1
  20        6       19 1
  21        7       20 1
  22        9       21 1
  23       10       22 1
  24       11       23 1
  25       11       24 1
  26       12       25 1
  27       12       26 1
  28       13       27 1
  29       13       28 1
  30       14       29 1
  31       14       30 1
  32       15       31 1
  33       15       32 1

@<TRIPOS>MOLECULE

  32   33
SMALL
USER_CHARGES
@<TRIPOS>ATOM
   1 C1           4.2813    -0.3040    -0.7082 C.2          1    LIG   0.0000
   2 C2           3.2577     0.4874    -0.3754 C.2          1    LIG   0.0000
   3 C3           2.8092     1.0000     1.0000 C.3          1    LIG   0.0000
   4 S4           1.0000     1.0000     1.0000 S.3          1    LIG   0.0000
   5 C5           0.6203     2.6751     1.2821 C.ar         1    LIG   0.0000
   6 C6          -0.3625     3.0204     2.2037 C.ar         1    LIG   0.0000
   7 C7          -0.6458     4.3668     2.4101 C.ar         1    LIG   0.0000
   8 N8           0.0211     5.3104     1.7275 N.ar         1    LIG   0.0000
   9 C9           0.9714     4.9989     0.8345 C.ar         1    LIG   0.0000
  10 C10          1.2981     3.6700     0.5865 C.ar         1    LIG   0.0000
  11 C11          3.2505     0.2659     2.2717 C.3          1    LIG   0.0000
  12 C12          2.9745    -1.2323     2.3584 C.3          1    LIG   0.0000
  13 C13          4.2096    -2.1349     2.2410 C.3          1    LIG   0.0000
  14 C14          4.8618    -2.2764     0.8617 C.3          1    LIG   0.0000
  15 C15          5.3040    -0.9664     0.2044 C.3          1    LIG   0.0000
  16 H            3.1105     1.9501     1.0805 H            1    LIG   0.0000
  17 H            4.3900    -0.4852    -1.6856 H            1    LIG   0.0000
  18 H            2.6953     0.7940    -1.1433 H            1    LIG   0.0000
  19 H           -0.8568     2.3132     2.7091 H            1    LIG   0.0000
  20 H           -1.3490     4.6325     3.0696 H            1    LIG   0.0000
  21 H            1.4487     5.7274     0.3431 H            1    LIG   0.0000
  22 H            2.0065     3.4348    -0.0790 H            1    LIG   0.0000
  23 H            2.7860     0.7002     3.0436 H            1    LIG   0.0000
  24 H            4.2382     0.3933     2.3625 H            1    LIG   0.0000
  25 H            2.3444    -1.4734     1.6202 H            1    LIG   0.0000
  26 H            2.5405    -1.4159     3.2404 H            1    LIG   0.0000
  27 H            4.9037    -1.7734     2.8635 H            1    LIG   0.0000
  28 H            3.9394    -3.0506     2.5386 H            1    LIG   0.0000
  29 H            5.6684    -2.8591     0.9606 H            1    LIG   0.0000
  30 H            4.2032    -2.7193     0.2534 H            1    LIG   0.0000
  31 H            5.5302    -0.3192     0.9324 H            1    LIG   0.0000
  32 H            6.1219    -1.1566    -0.3386 H            1    LIG   0.0000
@<TRIPOS>BOND
   1        1        2 2
   2        2        3 1
   3        3        4 1
   4        4        5 1
   5        5        6 ar
   6        6        7 ar
   7        7        8 ar
   8        8        9 ar
   9        9       10 ar
  10       10        5 ar
  11        3       11 1
  12       11       12 1
  13       12       13 1
  14       13       14 1
  15       14       15 1
  16       15        1 1
  17        3       16 1
  18        1       17 1
  19        2       18 1
  20        6       19 1
  21        7       20 1
  22        9       21 1
  23       10       22 1
  24       11       23 1
  25       11       24 1
  26       12       25 1
  27       12       26 1
  28       13       27 1
  29       13       28 1
  30       14       29 1
  31       14       30 1
  32       15       31 1
  33       15       32 1

@<TRIPOS>MOLECULE

  32   33
SMALL
USER_CHARGES
@<TRIPOS>ATOM
   1 C1           4.2813     2.1592    -0.8096 C.2          1    LIG   0.0000
   2 C2           3.2577     2.1172     0.0479 C.2          1    LIG   0.0000
   3 C3           2.8092     1.0000     1.0000 C.3          1    LIG   0.0000
   4 S4           1.0000     1.0000     1.0000 S.3          1    LIG   0.0000
   5 C5           0.6203     2.6751     1.2821 C.ar         1    LIG   0.0000
   6 C6           0.4685     3.1450     2.5823 C.ar         1    LIG   0.0000
   7 C7           0.1654     4.4885     2.7795 C.ar         1    LIG   0.0000
   8 N8           0.0227     5.3106     1.7283 N.ar         1    LIG   0.0000
   9 C9           0.1643     4.8778     0.4673 C.ar         1    LIG   0.0000
  10 C10          0.4677     3.5454     0.2085 C.ar         1    LIG   0.0000
  11 C11          3.2505    -0.4461     0.7451 C.3          1    LIG   0.0000
  12 C12          2.9745    -1.0399    -0.6331 C.3          1    LIG   0.0000
  13 C13          4.2096    -1.2383    -1.5214 C.3          1    LIG   0.0000
  14 C14          4.8618     0.0094    -2.1261 C.3          1    LIG   0.0000
  15 C15          5.3040     1.0750    -1.1199 C.3          1    LIG   0.0000
  16 H            3.1105     1.2493     1.9203 H            1    LIG   0.0000
  17 H            4.3900     3.0157    -1.3141 H            1    LIG   0.0000
  18 H            2.6953     2.9436     0.0734 H            1    LIG   0.0000
  19 H            0.5752     2.5279     3.3619 H            1    LIG   0.0000
  20 H            0.0535     4.8429     3.7078 H            1    LIG   0.0000
  21 H            0.0509     5.5177    -0.2927 H            1    LIG   0.0000
  22 H            0.5739     3.2198    -0.7310 H            1    LIG   0.0000
  23 H            2.7860    -1.0229     1.4172 H            1    LIG   0.0000
  24 H            4.2382    -0.4879     0.8959 H            1    LIG   0.0000
  25 H            2.3444    -0.4288    -1.1121 H            1    LIG   0.0000
  26 H            2.5405    -1.9315    -0.5039 H            1    LIG   0.0000
  27 H            4.9037    -1.6997    -0.9687 H            1    LIG   0.0000
  28 H            3.9394    -1.8311    -2.2801 H            1    LIG   0.0000
  29 H            5.6684    -0.2828    -2.6399 H            1    LIG   0.0000
  30 H            4.2032     0.4295    -2.7503 H            1    LIG   0.0000
  31 H            5.5302     0.6124    -0.2627 H            1    LIG   0.0000
  32 H            6.1219     1.5202    -1.4844 H            1    LIG   0.0000
@<TRIPOS>BOND
   1        1        2 2
   2        2        3 1
   3        3        4 1
   4        4        5 1
   5        5        6 ar
   6        6        7 ar
   7        7        8 ar
   8        8        9 ar
   9        9       10 ar
  10       10        5 ar
  11        3       11 1
  12       11       12 1
  13       12       13 1
  14       13       14 1
  15       14       15 1
  16       15        1 1
  17        3       16 1
  18        1       17 1
  19        2       18 1
  20        6       19 1
  21        7       20 1
  22        9       21 1
  23       10       22 1
  24       11       23 1
  25       11       24 1
  26       12       25 1
  27       12       26 1
  28       13       27 1
  29       13       28 1
  30       14       29 1
  31       14       30 1
  32       15       31 1
  33       15       32 1

@<TRIPOS>MOLECULE

  32   33
SMALL
USER_CHARGES
@<TRIPOS>ATOM
   1 C1           4.2813     0.7248    -1.1313 C.2          1    LIG   0.0000
   2 C2           3.2577     1.2438    -0.4475 C.2          1    LIG   0.0000
   3 C3           2.8092     1.0000     1.0000 C.3          1    LIG   0.0000
   4 S4           1.0000     1.0000     1.0000 S.3          1    LIG   0.0000
   5 C5           0.6203     2.6751     1.2821 C.ar         1    LIG   0.0000
   6 C6          -0.3625     3.3032     0.5245 C.ar         1    LIG   0.0000
   7 C7          -0.6464     4.6428     0.7709 C.ar         1    LIG   0.0000
   8 N8           0.0213     5.3110     1.7243 N.ar         1    LIG   0.0000
   9 C9           0.9724     4.7245     2.4652 C.ar         1    LIG   0.0000
  10 C10          1.2990     3.3877     2.2644 C.ar         1    LIG   0.0000
  11 C11          3.2505    -0.2716     1.7343 C.3          1    LIG   0.0000
  12 C12          2.9745    -1.6124     1.0602 C.3          1    LIG   0.0000
  13 C13          4.2096    -2.3354     0.5072 C.3          1    LIG   0.0000
  14 C14          4.8618    -1.7683    -0.7580 C.3          1    LIG   0.0000
  15 C15          5.3040    -0.3052    -0.6722 C.3          1    LIG   0.0000
  16 H            3.1105     1.7826     1.5448 H            1    LIG   0.0000
  17 H            4.3900     1.0566    -2.0684 H            1    LIG   0.0000
  18 H            2.6953     1.8933    -0.9592 H            1    LIG   0.0000
  19 H           -0.8564     2.8007    -0.1851 H            1    LIG   0.0000
  20 H           -1.3506     5.1094     0.2357 H            1    LIG   0.0000
  21 H            1.4504     5.2522     3.1673 H            1    LIG   0.0000
  22 H            2.0079     2.9476     2.8156 H            1    LIG   0.0000
  23 H            2.7860    -0.2814     2.6199 H            1    LIG   0.0000
  24 H            4.2382    -0.2067     1.8766 H            1    LIG   0.0000
  25 H            2.3444    -1.4522     0.3004 H            1    LIG   0.0000
  26 H            2.5405    -2.2124     1.7323 H            1    LIG   0.0000
  27 H            4.9037    -2.3336     1.2272 H            1    LIG   0.0000
  28 H            3.9394    -3.2772     0.3071 H            1    LIG   0.0000
  29 H            5.6684    -2.3224    -0.9637 H            1    LIG   0.0000
  30 H            4.2032    -1.8477    -1.5062 H            1    LIG   0.0000
  31 H            5.5302    -0.1086     0.2818 H            1    LIG   0.0000
  32 H            6.1219    -0.1984    -1.2375 H            1    LIG   0.0000
@<TRIPOS>BOND
   1        1        2 2
   2        2        3 1
   3        3        4 1
   4        4        5 1
   5        5        6 ar
   6        6        7 ar
   7        7        8 ar
   8        8        9 ar
   9        9       10 ar
  10       10        5 ar
  11        3       11 1
  12       11       12 1
  13       12       13 1
  14       13       14 1
  15       14       15 1
  16       15        1 1
  17        3       16 1
  18        1       17 1
  19        2       18 1
  20        6       19 1
  21        7       20 1
  22        9       21 1
  23       10       22 1
  24       11       23 1
  25       11       24 1
  26       12       25 1
  27       12       26 1
  28       13       27 1
  29       13       28 1
  30       14       29 1
  31       14       30 1
  32       15       31 1
  33       15       32 1

