@<TRIPOS>MOLECULE
*****
 32 33 0 0 0
SMALL
USER_CHARGES

@<TRIPOS>ATOM
      1 C1          4.2813    2.1592   -0.8096 C.2     1  LIG1        0.0000
      2 C2          3.2577    2.1172    0.0479 C.2     1  LIG1        0.0000
      3 C3          2.8092    1.0000    1.0000 C.3     1  LIG1        0.0000
      4 S4          1.0000    1.0000    1.0000 S.3     1  LIG1        0.0000
      5 C5          0.6203    2.6751    1.2821 C.ar    1  LIG1        0.0000
      6 C6          0.4685    3.1450    2.5823 C.ar    1  LIG1        0.0000
      7 C7          0.1654    4.4885    2.7795 C.ar    1  LIG1        0.0000
      8 N8          0.0227    5.3106    1.7283 N.ar    1  LIG1        0.0000
      9 C9          0.1643    4.8778    0.4673 C.ar    1  LIG1        0.0000
     10 C10         0.4677    3.5454    0.2085 C.ar    1  LIG1        0.0000
     11 C11         3.2505   -0.4461    0.7451 C.3     1  LIG1        0.0000
     12 C12         2.9745   -1.0399   -0.6331 C.3     1  LIG1        0.0000
     13 C13         4.2096   -1.2383   -1.5214 C.3     1  LIG1        0.0000
     14 C14         4.8618    0.0094   -2.1261 C.3     1  LIG1        0.0000
     15 C15         5.3040    1.0750   -1.1199 C.3     1  LIG1        0.0000
     16 H           3.1105    1.2493    1.9203 H       1  LIG1        0.0000
     17 H           4.3900    3.0157   -1.3141 H       1  LIG1        0.0000
     18 H           2.6953    2.9436    0.0734 H       1  LIG1        0.0000
     19 H           0.5752    2.5279    3.3619 H       1  LIG1        0.0000
     20 H           0.0535    4.8429    3.7078 H       1  LIG1        0.0000
     21 H           0.0509    5.5177   -0.2927 H       1  LIG1        0.0000
     22 H           0.5739    3.2198   -0.7310 H       1  LIG1        0.0000
     23 H           2.7860   -1.0229    1.4172 H       1  LIG1        0.0000
     24 H           4.2382   -0.4879    0.8959 H       1  LIG1        0.0000
     25 H           2.3444   -0.4288   -1.1121 H       1  LIG1        0.0000
     26 H           2.5405   -1.9315   -0.5039 H       1  LIG1        0.0000
     27 H           4.9037   -1.6997   -0.9687 H       1  LIG1        0.0000
     28 H           3.9394   -1.8311   -2.2801 H       1  LIG1        0.0000
     29 H           5.6684   -0.2828   -2.6399 H       1  LIG1        0.0000
     30 H           4.2032    0.4295   -2.7503 H       1  LIG1        0.0000
     31 H           5.5302    0.6124   -0.2627 H       1  LIG1        0.0000
     32 H           6.1219    1.5202   -1.4844 H       1  LIG1        0.0000
@<TRIPOS>BOND
     1     1     2    2
     2     2     3    1
     3     3     4    1
     4     4     5    1
     5     5     6   ar
     6     6     7   ar
     7     7     8   ar
     8     8     9   ar
     9     9    10   ar
    10    10     5   ar
    11     3    11    1
    12    11    12    1
    13    12    13    1
    14    13    14    1
    15    14    15    1
    16    15     1    1
    17     3    16    1
    18     1    17    1
    19     2    18    1
    20     6    19    1
    21     7    20    1
    22     9    21    1
    23    10    22    1
    24    11    23    1
    25    11    24    1
    26    12    25    1
    27    12    26    1
    28    13    27    1
    29    13    28    1
    30    14    29    1
    31    14    30    1
    32    15    31    1
    33    15    32    1
