@<TRIPOS>MOLECULE
*****
 32 33 0 0 0
SMALL
USER_CHARGES

@<TRIPOS>ATOM
      1 C1          4.2813   -0.3040   -0.7082 C.2     1  LIG1        0.0000
      2 C2          3.2577    0.4874   -0.3754 C.2     1  LIG1        0.0000
      3 C3          2.8092    1.0000    1.0000 C.3     1  LIG1        0.0000
      4 S4          1.0000    1.0000    1.0000 S.3     1  LIG1        0.0000
      5 C5          0.6203    2.6751    1.2821 C.ar    1  LIG1        0.0000
      6 C6         -0.3625    3.0204    2.2037 C.ar    1  LIG1        0.0000
      7 C7         -0.6458    4.3668    2.4101 C.ar    1  LIG1        0.0000
      8 N8          0.0211    5.3104    1.7275 N.ar    1  LIG1        0.0000
      9 C9          0.9714    4.9989    0.8345 C.ar    1  LIG1        0.0000
     10 C10         1.2981    3.6700    0.5865 C.ar    1  LIG1        0.0000
     11 C11         3.2505    0.2659    2.2717 C.3     1  LIG1        0.0000
     12 C12         2.9745   -1.2323    2.3584 C.3     1  LIG1        0.0000
     13 C13         4.2096   -2.1349    2.2410 C.3     1  LIG1        0.0000
     14 C14         4.8618   -2.2764    0.8617 C.3     1  LIG1        0.0000
     15 C15         5.3040   -0.9664    0.2044 C.3     1  LIG1        0.0000
     16 H           3.1105    1.9501    1.0805 H       1  LIG1        0.0000
     17 H           4.3900   -0.4852   -1.6856 H       1  LIG1        0.0000
     18 H           2.6953    0.7940   -1.1433 H       1  LIG1        0.0000
     19 H          -0.8568    2.3132    2.7091 H       1  LIG1        0.0000
     20 H          -1.3490    4.6325    3.0696 H       1  LIG1        0.0000
     21 H           1.4487    5.7274    0.3431 H       1  LIG1        0.0000
     22 H           2.0065    3.4348   -0.0790 H       1  LIG1        0.0000
     23 H           2.7860    0.7002    3.0436 H       1  LIG1        0.0000
     24 H           4.2382    0.3933    2.3625 H       1  LIG1        0.0000
     25 H           2.3444   -1.4734    1.6202 H       1  LIG1        0.0000
     26 H           2.5405   -1.4159    3.2404 H       1  LIG1        0.0000
     27 H           4.9037   -1.7734    2.8635 H       1  LIG1        0.0000
     28 H           3.9394   -3.0506    2.5386 H       1  LIG1        0.0000
     29 H           5.6684   -2.8591    0.9606 H       1  LIG1        0.0000
     30 H           4.2032   -2.7193    0.2534 H       1  LIG1        0.0000
     31 H           5.5302   -0.3192    0.9324 H       1  LIG1        0.0000
     32 H           6.1219   -1.1566   -0.3386 H       1  LIG1        0.0000
@<TRIPOS>BOND
     1     1     2    2
     2     2     3    1
     3     3     4    1
     4     4     5    1
     5     5     6   ar
     6     6     7   ar
     7     7     8   ar
     8     8     9   ar
     9     9    10   ar
    10    10     5   ar
    11     3    11    1
    12    11    12    1
    13    12    13    1
    14    13    14    1
    15    14    15    1
    16    15     1    1
    17     3    16    1
    18     1    17    1
    19     2    18    1
    20     6    19    1
    21     7    20    1
    22     9    21    1
    23    10    22    1
    24    11    23    1
    25    11    24    1
    26    12    25    1
    27    12    26    1
    28    13    27    1
    29    13    28    1
    30    14    29    1
    31    14    30    1
    32    15    31    1
    33    15    32    1
