@<TRIPOS>MOLECULE
*****
 32 33 0 0 0
SMALL
USER_CHARGES

@<TRIPOS>ATOM
      1 C1          3.9092    2.6464   -0.6836 C.2     1  LIG1        0.0000
      2 C2          3.3932    2.3231    0.5069 C.2     1  LIG1        0.0000
      3 C3          2.8097    1.0000    1.0000 C.3     1  LIG1        0.0000
      4 S4          1.0000    1.0000    1.0000 S.3     1  LIG1        0.0000
      5 C5          0.6203    2.6751    1.2821 C.ar    1  LIG1        0.0000
      6 C6         -0.3625    3.3032    0.5245 C.ar    1  LIG1        0.0000
      7 C7         -0.6464    4.6428    0.7709 C.ar    1  LIG1        0.0000
      8 N8          0.0213    5.3110    1.7243 N.ar    1  LIG1        0.0000
      9 C9          0.9724    4.7245    2.4652 C.ar    1  LIG1        0.0000
     10 C10         1.2990    3.3877    2.2644 C.ar    1  LIG1        0.0000
     11 C11         3.2078   -0.2665    0.2500 C.3     1  LIG1        0.0000
     12 C12         4.7113   -0.5029    0.2186 C.3     1  LIG1        0.0000
     13 C13         5.2118   -0.4587   -1.2167 C.3     1  LIG1        0.0000
     14 C14         5.3670    0.9198   -1.8449 C.3     1  LIG1        0.0000
     15 C15         4.1068    1.7754   -1.9135 C.3     1  LIG1        0.0000
     16 H           3.1036    0.8845    1.9488 H       1  LIG1        0.0000
     17 H           4.2076    3.5961   -0.7782 H       1  LIG1        0.0000
     18 H           3.3885    3.0630    1.1796 H       1  LIG1        0.0000
     19 H          -0.8564    2.8007   -0.1851 H       1  LIG1        0.0000
     20 H          -1.3506    5.1094    0.2357 H       1  LIG1        0.0000
     21 H           1.4504    5.2522    3.1673 H       1  LIG1        0.0000
     22 H           2.0079    2.9476    2.8156 H       1  LIG1        0.0000
     23 H           2.8786   -0.1941   -0.6915 H       1  LIG1        0.0000
     24 H           2.7731   -1.0489    0.6959 H       1  LIG1        0.0000
     25 H           4.9145   -1.3990    0.6132 H       1  LIG1        0.0000
     26 H           5.1700    0.2079    0.7519 H       1  LIG1        0.0000
     27 H           6.1066   -0.9045   -1.2394 H       1  LIG1        0.0000
     28 H           4.5669   -0.9768   -1.7785 H       1  LIG1        0.0000
     29 H           6.0482    1.4225   -1.3125 H       1  LIG1        0.0000
     30 H           5.7010    0.7934   -2.7789 H       1  LIG1        0.0000
     31 H           4.1680    2.3681   -2.7167 H       1  LIG1        0.0000
     32 H           3.3160    1.1703   -2.0053 H       1  LIG1        0.0000
@<TRIPOS>BOND
     1     1     2    2
     2     2     3    1
     3     3     4    1
     4     4     5    1
     5     5     6   ar
     6     6     7   ar
     7     7     8   ar
     8     8     9   ar
     9     9    10   ar
    10    10     5   ar
    11     3    11    1
    12    11    12    1
    13    12    13    1
    14    13    14    1
    15    14    15    1
    16    15     1    1
    17     3    16    1
    18     1    17    1
    19     2    18    1
    20     6    19    1
    21     7    20    1
    22     9    21    1
    23    10    22    1
    24    11    23    1
    25    11    24    1
    26    12    25    1
    27    12    26    1
    28    13    27    1
    29    13    28    1
    30    14    29    1
    31    14    30    1
    32    15    31    1
    33    15    32    1
