@<TRIPOS>MOLECULE
*****
 32 33 0 0 0
SMALL
USER_CHARGES

@<TRIPOS>ATOM
      1 C1          4.4511    0.1223    2.7239 C.2     1  LIG1        0.0000
      2 C2          3.3314    0.7620    2.4134 C.2     1  LIG1        0.0000
      3 C3          2.8096    1.0000    1.0000 C.3     1  LIG1        0.0000
      4 S4          1.0000    1.0000    1.0000 S.3     1  LIG1        0.0000
      5 C5          0.6203    2.6751    1.2821 C.ar    1  LIG1        0.0000
      6 C6         -0.3625    3.3032    0.5245 C.ar    1  LIG1        0.0000
      7 C7         -0.6464    4.6428    0.7709 C.ar    1  LIG1        0.0000
      8 N8          0.0213    5.3110    1.7243 N.ar    1  LIG1        0.0000
      9 C9          0.9724    4.7245    2.4652 C.ar    1  LIG1        0.0000
     10 C10         1.2990    3.3877    2.2644 C.ar    1  LIG1        0.0000
     11 C11         3.3141    2.3007    0.3737 C.3     1  LIG1        0.0000
     12 C12         4.8215    2.5335    0.4438 C.3     1  LIG1        0.0000
     13 C13         5.7052    1.4069   -0.0826 C.3     1  LIG1        0.0000
     14 C14         6.3117    0.4847    0.9792 C.3     1  LIG1        0.0000
     15 C15         5.3666   -0.4900    1.6683 C.3     1  LIG1        0.0000
     16 H           3.1179    0.2415    0.4258 H       1  LIG1        0.0000
     17 H           4.7050    0.0381    3.6875 H       1  LIG1        0.0000
     18 H           2.7830    1.1183    3.1698 H       1  LIG1        0.0000
     19 H          -0.8564    2.8007   -0.1851 H       1  LIG1        0.0000
     20 H          -1.3506    5.1094    0.2357 H       1  LIG1        0.0000
     21 H           1.4504    5.2522    3.1673 H       1  LIG1        0.0000
     22 H           2.0079    2.9476    2.8156 H       1  LIG1        0.0000
     23 H           2.8644    3.0611    0.8424 H       1  LIG1        0.0000
     24 H           3.0486    2.2997   -0.5904 H       1  LIG1        0.0000
     25 H           5.0618    2.6866    1.4023 H       1  LIG1        0.0000
     26 H           5.0278    3.3556   -0.0870 H       1  LIG1        0.0000
     27 H           5.1521    0.8448   -0.6975 H       1  LIG1        0.0000
     28 H           6.4573    1.8208   -0.5955 H       1  LIG1        0.0000
     29 H           7.0301   -0.0526    0.5375 H       1  LIG1        0.0000
     30 H           6.7162    1.0642    1.6868 H       1  LIG1        0.0000
     31 H           4.7909   -0.9098    0.9666 H       1  LIG1        0.0000
     32 H           5.9199   -1.1953    2.1114 H       1  LIG1        0.0000
@<TRIPOS>BOND
     1     1     2    2
     2     2     3    1
     3     3     4    1
     4     4     5    1
     5     5     6   ar
     6     6     7   ar
     7     7     8   ar
     8     8     9   ar
     9     9    10   ar
    10    10     5   ar
    11     3    11    1
    12    11    12    1
    13    12    13    1
    14    13    14    1
    15    14    15    1
    16    15     1    1
    17     3    16    1
    18     1    17    1
    19     2    18    1
    20     6    19    1
    21     7    20    1
    22     9    21    1
    23    10    22    1
    24    11    23    1
    25    11    24    1
    26    12    25    1
    27    12    26    1
    28    13    27    1
    29    13    28    1
    30    14    29    1
    31    14    30    1
    32    15    31    1
    33    15    32    1
