@<TRIPOS>MOLECULE
*****
 32 33 0 0 0
SMALL
USER_CHARGES

@<TRIPOS>ATOM
      1 C1          4.4931    0.1668   -0.6809 C.2     1  LIG1        0.0000
      2 C2          3.3021    0.0640   -0.0982 C.2     1  LIG1        0.0000
      3 C3          2.8095    1.0000    1.0000 C.3     1  LIG1        0.0000
      4 S4          1.0000    1.0000    1.0000 S.3     1  LIG1        0.0000
      5 C5          0.6203    2.6751    1.2821 C.ar    1  LIG1        0.0000
      6 C6         -0.3625    3.3032    0.5245 C.ar    1  LIG1        0.0000
      7 C7         -0.6464    4.6428    0.7709 C.ar    1  LIG1        0.0000
      8 N8          0.0213    5.3110    1.7243 N.ar    1  LIG1        0.0000
      9 C9          0.9724    4.7245    2.4652 C.ar    1  LIG1        0.0000
     10 C10         1.2990    3.3877    2.2644 C.ar    1  LIG1        0.0000
     11 C11         3.2989    0.6597    2.4057 C.3     1  LIG1        0.0000
     12 C12         4.7486    1.0153    2.7392 C.3     1  LIG1        0.0000
     13 C13         5.8259    0.1615    2.0703 C.3     1  LIG1        0.0000
     14 C14         6.4680    0.7563    0.8157 C.3     1  LIG1        0.0000
     15 C15         5.5136    1.2246   -0.2845 C.3     1  LIG1        0.0000
     16 H           3.1190    1.9251    0.7800 H       1  LIG1        0.0000
     17 H           4.7278   -0.4769   -1.4093 H       1  LIG1        0.0000
     18 H           2.6936   -0.6707   -0.3980 H       1  LIG1        0.0000
     19 H          -0.8564    2.8007   -0.1851 H       1  LIG1        0.0000
     20 H          -1.3506    5.1094    0.2357 H       1  LIG1        0.0000
     21 H           1.4504    5.2522    3.1673 H       1  LIG1        0.0000
     22 H           2.0079    2.9476    2.8156 H       1  LIG1        0.0000
     23 H           3.1932   -0.3266    2.5318 H       1  LIG1        0.0000
     24 H           2.7122    1.1435    3.0551 H       1  LIG1        0.0000
     25 H           4.8633    0.9304    3.7290 H       1  LIG1        0.0000
     26 H           4.8998    1.9655    2.4665 H       1  LIG1        0.0000
     27 H           6.5514    0.0039    2.7402 H       1  LIG1        0.0000
     28 H           5.4106   -0.7121    1.8169 H       1  LIG1        0.0000
     29 H           7.0149    1.5442    1.0989 H       1  LIG1        0.0000
     30 H           7.0670    0.0592    0.4216 H       1  LIG1        0.0000
     31 H           5.0235    2.0327    0.0423 H       1  LIG1        0.0000
     32 H           6.0523    1.4652   -1.0918 H       1  LIG1        0.0000
@<TRIPOS>BOND
     1     1     2    2
     2     2     3    1
     3     3     4    1
     4     4     5    1
     5     5     6   ar
     6     6     7   ar
     7     7     8   ar
     8     8     9   ar
     9     9    10   ar
    10    10     5   ar
    11     3    11    1
    12    11    12    1
    13    12    13    1
    14    13    14    1
    15    14    15    1
    16    15     1    1
    17     3    16    1
    18     1    17    1
    19     2    18    1
    20     6    19    1
    21     7    20    1
    22     9    21    1
    23    10    22    1
    24    11    23    1
    25    11    24    1
    26    12    25    1
    27    12    26    1
    28    13    27    1
    29    13    28    1
    30    14    29    1
    31    14    30    1
    32    15    31    1
    33    15    32    1
