@<TRIPOS>MOLECULE
*****
 32 33 0 0 0
SMALL
USER_CHARGES

@<TRIPOS>ATOM
      1 C1          4.2813    0.7248   -1.1313 C.2     1  LIG1        0.0000
      2 C2          3.2577    1.2438   -0.4475 C.2     1  LIG1        0.0000
      3 C3          2.8092    1.0000    1.0000 C.3     1  LIG1        0.0000
      4 S4          1.0000    1.0000    1.0000 S.3     1  LIG1        0.0000
      5 C5          0.6203    2.6751    1.2821 C.ar    1  LIG1        0.0000
      6 C6         -0.3625    3.3032    0.5245 C.ar    1  LIG1        0.0000
      7 C7         -0.6464    4.6428    0.7709 C.ar    1  LIG1        0.0000
      8 N8          0.0213    5.3110    1.7243 N.ar    1  LIG1        0.0000
      9 C9          0.9724    4.7245    2.4652 C.ar    1  LIG1        0.0000
     10 C10         1.2990    3.3877    2.2644 C.ar    1  LIG1        0.0000
     11 C11         3.2505   -0.2716    1.7343 C.3     1  LIG1        0.0000
     12 C12         2.9745   -1.6124    1.0602 C.3     1  LIG1        0.0000
     13 C13         4.2096   -2.3354    0.5072 C.3     1  LIG1        0.0000
     14 C14         4.8618   -1.7683   -0.7580 C.3     1  LIG1        0.0000
     15 C15         5.3040   -0.3052   -0.6722 C.3     1  LIG1        0.0000
     16 H           3.1105    1.7826    1.5448 H       1  LIG1        0.0000
     17 H           4.3900    1.0566   -2.0684 H       1  LIG1        0.0000
     18 H           2.6953    1.8933   -0.9592 H       1  LIG1        0.0000
     19 H          -0.8564    2.8007   -0.1851 H       1  LIG1        0.0000
     20 H          -1.3506    5.1094    0.2357 H       1  LIG1        0.0000
     21 H           1.4504    5.2522    3.1673 H       1  LIG1        0.0000
     22 H           2.0079    2.9476    2.8156 H       1  LIG1        0.0000
     23 H           2.7860   -0.2814    2.6199 H       1  LIG1        0.0000
     24 H           4.2382   -0.2067    1.8766 H       1  LIG1        0.0000
     25 H           2.3444   -1.4522    0.3004 H       1  LIG1        0.0000
     26 H           2.5405   -2.2124    1.7323 H       1  LIG1        0.0000
     27 H           4.9037   -2.3336    1.2272 H       1  LIG1        0.0000
     28 H           3.9394   -3.2772    0.3071 H       1  LIG1        0.0000
     29 H           5.6684   -2.3224   -0.9637 H       1  LIG1        0.0000
     30 H           4.2032   -1.8477   -1.5062 H       1  LIG1        0.0000
     31 H           5.5302   -0.1086    0.2818 H       1  LIG1        0.0000
     32 H           6.1219   -0.1984   -1.2375 H       1  LIG1        0.0000
@<TRIPOS>BOND
     1     1     2    2
     2     2     3    1
     3     3     4    1
     4     4     5    1
     5     5     6   ar
     6     6     7   ar
     7     7     8   ar
     8     8     9   ar
     9     9    10   ar
    10    10     5   ar
    11     3    11    1
    12    11    12    1
    13    12    13    1
    14    13    14    1
    15    14    15    1
    16    15     1    1
    17     3    16    1
    18     1    17    1
    19     2    18    1
    20     6    19    1
    21     7    20    1
    22     9    21    1
    23    10    22    1
    24    11    23    1
    25    11    24    1
    26    12    25    1
    27    12    26    1
    28    13    27    1
    29    13    28    1
    30    14    29    1
    31    14    30    1
    32    15    31    1
    33    15    32    1
