@<TRIPOS>MOLECULE
*****
 32 33 0 0 0
SMALL
USER_CHARGES

@<TRIPOS>ATOM
      1 C1          3.9092   -0.6836   -0.6464 C.2     1  LIG1        0.0000
      2 C2          3.3932    0.5069   -0.3231 C.2     1  LIG1        0.0000
      3 C3          2.8097    1.0000    1.0000 C.3     1  LIG1        0.0000
      4 S4          1.0000    1.0000    1.0000 S.3     1  LIG1        0.0000
      5 C5          0.6203    2.6751    1.2821 C.ar    1  LIG1        0.0000
      6 C6         -0.7066    3.0859    1.3513 C.ar    1  LIG1        0.0000
      7 C7         -0.9821    4.4307    1.5782 C.ar    1  LIG1        0.0000
      8 N8          0.0205    5.3106    1.7258 N.ar    1  LIG1        0.0000
      9 C9          1.3061    4.9354    1.6620 C.ar    1  LIG1        0.0000
     10 C10         1.6425    3.6047    1.4380 C.ar    1  LIG1        0.0000
     11 C11         3.2078    0.2500    2.2665 C.3     1  LIG1        0.0000
     12 C12         4.7113    0.2186    2.5029 C.3     1  LIG1        0.0000
     13 C13         5.2118   -1.2167    2.4587 C.3     1  LIG1        0.0000
     14 C14         5.3670   -1.8449    1.0802 C.3     1  LIG1        0.0000
     15 C15         4.1068   -1.9135    0.2246 C.3     1  LIG1        0.0000
     16 H           3.1036    1.9488    1.1155 H       1  LIG1        0.0000
     17 H           4.2076   -0.7782   -1.5961 H       1  LIG1        0.0000
     18 H           3.3885    1.1796   -1.0630 H       1  LIG1        0.0000
     19 H          -1.4499    2.4262    1.2399 H       1  LIG1        0.0000
     20 H          -1.9306    4.7429    1.6314 H       1  LIG1        0.0000
     21 H           2.0284    5.6175    1.7763 H       1  LIG1        0.0000
     22 H           2.6005    3.3220    1.3901 H       1  LIG1        0.0000
     23 H           2.8786   -0.6915    2.1941 H       1  LIG1        0.0000
     24 H           2.7731    0.6959    3.0489 H       1  LIG1        0.0000
     25 H           4.9145    0.6132    3.3990 H       1  LIG1        0.0000
     26 H           5.1700    0.7519    1.7921 H       1  LIG1        0.0000
     27 H           6.1066   -1.2394    2.9045 H       1  LIG1        0.0000
     28 H           4.5669   -1.7785    2.9768 H       1  LIG1        0.0000
     29 H           6.0482   -1.3125    0.5775 H       1  LIG1        0.0000
     30 H           5.7010   -2.7789    1.2066 H       1  LIG1        0.0000
     31 H           4.1680   -2.7167   -0.3681 H       1  LIG1        0.0000
     32 H           3.3160   -2.0053    0.8297 H       1  LIG1        0.0000
@<TRIPOS>BOND
     1     1     2    2
     2     2     3    1
     3     3     4    1
     4     4     5    1
     5     5     6   ar
     6     6     7   ar
     7     7     8   ar
     8     8     9   ar
     9     9    10   ar
    10    10     5   ar
    11     3    11    1
    12    11    12    1
    13    12    13    1
    14    13    14    1
    15    14    15    1
    16    15     1    1
    17     3    16    1
    18     1    17    1
    19     2    18    1
    20     6    19    1
    21     7    20    1
    22     9    21    1
    23    10    22    1
    24    11    23    1
    25    11    24    1
    26    12    25    1
    27    12    26    1
    28    13    27    1
    29    13    28    1
    30    14    29    1
    31    14    30    1
    32    15    31    1
    33    15    32    1
