@<TRIPOS>MOLECULE
*****
 32 33 0 0 0
SMALL
USER_CHARGES

@<TRIPOS>ATOM
      1 C1          3.9092   -1.2676    1.6349 C.2     1  LIG1        0.0000
      2 C2          3.3932   -0.3924    0.7655 C.2     1  LIG1        0.0000
      3 C3          2.8097    1.0000    1.0000 C.3     1  LIG1        0.0000
      4 S4          1.0000    1.0000    1.0000 S.3     1  LIG1        0.0000
      5 C5          0.6203    2.6751    1.2821 C.ar    1  LIG1        0.0000
      6 C6         -0.3625    3.0204    2.2037 C.ar    1  LIG1        0.0000
      7 C7         -0.6458    4.3668    2.4101 C.ar    1  LIG1        0.0000
      8 N8          0.0211    5.3104    1.7275 N.ar    1  LIG1        0.0000
      9 C9          0.9714    4.9989    0.8345 C.ar    1  LIG1        0.0000
     10 C10         1.2981    3.6700    0.5865 C.ar    1  LIG1        0.0000
     11 C11         3.2078    1.7218    2.2828 C.3     1  LIG1        0.0000
     12 C12         4.7113    1.9109    2.4282 C.3     1  LIG1        0.0000
     13 C13         5.2118    1.1549    3.6491 C.3     1  LIG1        0.0000
     14 C14         5.3670   -0.3530    3.5038 C.3     1  LIG1        0.0000
     15 C15         4.1068   -1.1283    3.1355 C.3     1  LIG1        0.0000
     16 H           3.1036    1.5744    0.2361 H       1  LIG1        0.0000
     17 H           4.2076   -2.1374    1.2419 H       1  LIG1        0.0000
     18 H           3.3885   -0.6968   -0.1870 H       1  LIG1        0.0000
     19 H          -0.8568    2.3132    2.7091 H       1  LIG1        0.0000
     20 H          -1.3490    4.6325    3.0696 H       1  LIG1        0.0000
     21 H           1.4487    5.7274    0.3431 H       1  LIG1        0.0000
     22 H           2.0065    3.4348   -0.0790 H       1  LIG1        0.0000
     23 H           2.8786    1.1884    3.0619 H       1  LIG1        0.0000
     24 H           2.7731    2.6224    2.2878 H       1  LIG1        0.0000
     25 H           4.9145    2.8842    2.5345 H       1  LIG1        0.0000
     26 H           5.1700    1.5619    1.6109 H       1  LIG1        0.0000
     27 H           6.1066    1.5297    3.8917 H       1  LIG1        0.0000
     28 H           4.5669    1.3227    4.3947 H       1  LIG1        0.0000
     29 H           6.0482   -0.5222    2.7914 H       1  LIG1        0.0000
     30 H           5.7010   -0.7105    4.3759 H       1  LIG1        0.0000
     31 H           4.1680   -2.0432    3.5347 H       1  LIG1        0.0000
     32 H           3.3160   -0.6501    3.5175 H       1  LIG1        0.0000
@<TRIPOS>BOND
     1     1     2    2
     2     2     3    1
     3     3     4    1
     4     4     5    1
     5     5     6   ar
     6     6     7   ar
     7     7     8   ar
     8     8     9   ar
     9     9    10   ar
    10    10     5   ar
    11     3    11    1
    12    11    12    1
    13    12    13    1
    14    13    14    1
    15    14    15    1
    16    15     1    1
    17     3    16    1
    18     1    17    1
    19     2    18    1
    20     6    19    1
    21     7    20    1
    22     9    21    1
    23    10    22    1
    24    11    23    1
    25    11    24    1
    26    12    25    1
    27    12    26    1
    28    13    27    1
    29    13    28    1
    30    14    29    1
    31    14    30    1
    32    15    31    1
    33    15    32    1
