@<TRIPOS>MOLECULE
*****
 32 33 0 0 0
SMALL
USER_CHARGES

@<TRIPOS>ATOM
      1 C1          4.4511   -0.7239    0.1223 C.2     1  LIG1        0.0000
      2 C2          3.3314   -0.4134    0.7620 C.2     1  LIG1        0.0000
      3 C3          2.8096    1.0000    1.0000 C.3     1  LIG1        0.0000
      4 S4          1.0000    1.0000    1.0000 S.3     1  LIG1        0.0000
      5 C5          0.6203    2.6751    1.2821 C.ar    1  LIG1        0.0000
      6 C6         -0.3625    3.0204    2.2037 C.ar    1  LIG1        0.0000
      7 C7         -0.6458    4.3668    2.4101 C.ar    1  LIG1        0.0000
      8 N8          0.0211    5.3104    1.7275 N.ar    1  LIG1        0.0000
      9 C9          0.9714    4.9989    0.8345 C.ar    1  LIG1        0.0000
     10 C10         1.2981    3.6700    0.5865 C.ar    1  LIG1        0.0000
     11 C11         3.3141    1.6263    2.3007 C.3     1  LIG1        0.0000
     12 C12         4.8215    1.5562    2.5335 C.3     1  LIG1        0.0000
     13 C13         5.7052    2.0826    1.4069 C.3     1  LIG1        0.0000
     14 C14         6.3117    1.0208    0.4847 C.3     1  LIG1        0.0000
     15 C15         5.3666    0.3317   -0.4900 C.3     1  LIG1        0.0000
     16 H           3.1179    1.5742    0.2415 H       1  LIG1        0.0000
     17 H           4.7050   -1.6875    0.0381 H       1  LIG1        0.0000
     18 H           2.7830   -1.1698    1.1183 H       1  LIG1        0.0000
     19 H          -0.8568    2.3132    2.7091 H       1  LIG1        0.0000
     20 H          -1.3490    4.6325    3.0696 H       1  LIG1        0.0000
     21 H           1.4487    5.7274    0.3431 H       1  LIG1        0.0000
     22 H           2.0065    3.4348   -0.0790 H       1  LIG1        0.0000
     23 H           2.8644    1.1576    3.0611 H       1  LIG1        0.0000
     24 H           3.0486    2.5904    2.2997 H       1  LIG1        0.0000
     25 H           5.0618    0.5977    2.6866 H       1  LIG1        0.0000
     26 H           5.0278    2.0870    3.3556 H       1  LIG1        0.0000
     27 H           5.1521    2.6975    0.8448 H       1  LIG1        0.0000
     28 H           6.4573    2.5955    1.8208 H       1  LIG1        0.0000
     29 H           7.0301    1.4625   -0.0526 H       1  LIG1        0.0000
     30 H           6.7162    0.3132    1.0642 H       1  LIG1        0.0000
     31 H           4.7909    1.0334   -0.9098 H       1  LIG1        0.0000
     32 H           5.9199   -0.1114   -1.1953 H       1  LIG1        0.0000
@<TRIPOS>BOND
     1     1     2    2
     2     2     3    1
     3     3     4    1
     4     4     5    1
     5     5     6   ar
     6     6     7   ar
     7     7     8   ar
     8     8     9   ar
     9     9    10   ar
    10    10     5   ar
    11     3    11    1
    12    11    12    1
    13    12    13    1
    14    13    14    1
    15    14    15    1
    16    15     1    1
    17     3    16    1
    18     1    17    1
    19     2    18    1
    20     6    19    1
    21     7    20    1
    22     9    21    1
    23    10    22    1
    24    11    23    1
    25    11    24    1
    26    12    25    1
    27    12    26    1
    28    13    27    1
    29    13    28    1
    30    14    29    1
    31    14    30    1
    32    15    31    1
    33    15    32    1
