@<TRIPOS>MOLECULE
*****
 32 33 0 0 0
SMALL
USER_CHARGES

@<TRIPOS>ATOM
      1 C1          3.9092    2.3721    2.9137 C.2     1  LIG1        0.0000
      2 C2          3.3932    1.2559    2.3886 C.2     1  LIG1        0.0000
      3 C3          2.8097    1.0000    1.0000 C.3     1  LIG1        0.0000
      4 S4          1.0000    1.0000    1.0000 S.3     1  LIG1        0.0000
      5 C5          0.6203    2.6751    1.2821 C.ar    1  LIG1        0.0000
      6 C6          0.4685    3.1450    2.5823 C.ar    1  LIG1        0.0000
      7 C7          0.1654    4.4885    2.7795 C.ar    1  LIG1        0.0000
      8 N8          0.0227    5.3106    1.7283 N.ar    1  LIG1        0.0000
      9 C9          0.1643    4.8778    0.4673 C.ar    1  LIG1        0.0000
     10 C10         0.4677    3.5454    0.2085 C.ar    1  LIG1        0.0000
     11 C11         3.2078    1.9586   -0.1170 C.3     1  LIG1        0.0000
     12 C12         4.7113    2.0305   -0.3444 C.3     1  LIG1        0.0000
     13 C13         5.2118    3.4363   -0.0516 C.3     1  LIG1        0.0000
     14 C14         5.3670    3.8156    1.4151 C.3     1  LIG1        0.0000
     15 C15         4.1068    3.7346    2.2696 C.3     1  LIG1        0.0000
     16 H           3.1036    0.0857    0.7215 H       1  LIG1        0.0000
     17 H           4.2076    2.3003    3.8655 H       1  LIG1        0.0000
     18 H           3.3885    0.4649    3.0005 H       1  LIG1        0.0000
     19 H           0.5752    2.5279    3.3619 H       1  LIG1        0.0000
     20 H           0.0535    4.8429    3.7078 H       1  LIG1        0.0000
     21 H           0.0509    5.5177   -0.2927 H       1  LIG1        0.0000
     22 H           0.5739    3.2198   -0.7310 H       1  LIG1        0.0000
     23 H           2.8786    2.8732    0.1177 H       1  LIG1        0.0000
     24 H           2.7731    1.6553   -0.9650 H       1  LIG1        0.0000
     25 H           4.9145    1.7975   -1.2954 H       1  LIG1        0.0000
     26 H           5.1700    1.3819    0.2630 H       1  LIG1        0.0000
     27 H           6.1066    3.5361   -0.4867 H       1  LIG1        0.0000
     28 H           4.5669    4.0796   -0.4642 H       1  LIG1        0.0000
     29 H           6.0482    3.2040    1.8176 H       1  LIG1        0.0000
     30 H           5.7010    4.7574    1.4528 H       1  LIG1        0.0000
     31 H           4.1680    4.4226    2.9927 H       1  LIG1        0.0000
     32 H           3.3160    3.9301    1.6896 H       1  LIG1        0.0000
@<TRIPOS>BOND
     1     1     2    2
     2     2     3    1
     3     3     4    1
     4     4     5    1
     5     5     6   ar
     6     6     7   ar
     7     7     8   ar
     8     8     9   ar
     9     9    10   ar
    10    10     5   ar
    11     3    11    1
    12    11    12    1
    13    12    13    1
    14    13    14    1
    15    14    15    1
    16    15     1    1
    17     3    16    1
    18     1    17    1
    19     2    18    1
    20     6    19    1
    21     7    20    1
    22     9    21    1
    23    10    22    1
    24    11    23    1
    25    11    24    1
    26    12    25    1
    27    12    26    1
    28    13    27    1
    29    13    28    1
    30    14    29    1
    31    14    30    1
    32    15    31    1
    33    15    32    1
