@<TRIPOS>MOLECULE
*****
 32 33 0 0 0
SMALL
USER_CHARGES

@<TRIPOS>ATOM
      1 C1          4.4511    2.4144   -0.3198 C.2     1  LIG1        0.0000
      2 C2          3.3314    1.7071   -0.2467 C.2     1  LIG1        0.0000
      3 C3          2.8096    1.0000    1.0000 C.3     1  LIG1        0.0000
      4 S4          1.0000    1.0000    1.0000 S.3     1  LIG1        0.0000
      5 C5          0.6203    2.6751    1.2821 C.ar    1  LIG1        0.0000
      6 C6          0.4685    3.1450    2.5823 C.ar    1  LIG1        0.0000
      7 C7          0.1654    4.4885    2.7795 C.ar    1  LIG1        0.0000
      8 N8          0.0227    5.3106    1.7283 N.ar    1  LIG1        0.0000
      9 C9          0.1643    4.8778    0.4673 C.ar    1  LIG1        0.0000
     10 C10         0.4677    3.5454    0.2085 C.ar    1  LIG1        0.0000
     11 C11         3.3141   -0.4365    1.1437 C.3     1  LIG1        0.0000
     12 C12         4.8215   -0.6313    0.9982 C.3     1  LIG1        0.0000
     13 C13         5.7052    0.2474    1.8782 C.3     1  LIG1        0.0000
     14 C14         6.3117    1.4771    1.1958 C.3     1  LIG1        0.0000
     15 C15         5.3666    2.6287    0.8816 C.3     1  LIG1        0.0000
     16 H           3.1179    1.5163    1.7990 H       1  LIG1        0.0000
     17 H           4.7050    2.8230   -1.1964 H       1  LIG1        0.0000
     18 H           2.7830    1.6309   -1.0794 H       1  LIG1        0.0000
     19 H           0.5752    2.5279    3.3619 H       1  LIG1        0.0000
     20 H           0.0535    4.8429    3.7078 H       1  LIG1        0.0000
     21 H           0.0509    5.5177   -0.2927 H       1  LIG1        0.0000
     22 H           0.5739    3.2198   -0.7310 H       1  LIG1        0.0000
     23 H           2.8644   -0.9907    0.4431 H       1  LIG1        0.0000
     24 H           3.0486   -0.7653    2.0500 H       1  LIG1        0.0000
     25 H           5.0618   -0.4473    0.0451 H       1  LIG1        0.0000
     26 H           5.0278   -1.5853    1.2157 H       1  LIG1        0.0000
     27 H           5.1521    0.5653    2.6482 H       1  LIG1        0.0000
     28 H           6.4573   -0.3170    2.2185 H       1  LIG1        0.0000
     29 H           7.0301    1.8310    1.7946 H       1  LIG1        0.0000
     30 H           6.7162    1.1745    0.3327 H       1  LIG1        0.0000
     31 H           4.7909    2.7832    1.6846 H       1  LIG1        0.0000
     32 H           5.9199    3.4430    0.7065 H       1  LIG1        0.0000
@<TRIPOS>BOND
     1     1     2    2
     2     2     3    1
     3     3     4    1
     4     4     5    1
     5     5     6   ar
     6     6     7   ar
     7     7     8   ar
     8     8     9   ar
     9     9    10   ar
    10    10     5   ar
    11     3    11    1
    12    11    12    1
    13    12    13    1
    14    13    14    1
    15    14    15    1
    16    15     1    1
    17     3    16    1
    18     1    17    1
    19     2    18    1
    20     6    19    1
    21     7    20    1
    22     9    21    1
    23    10    22    1
    24    11    23    1
    25    11    24    1
    26    12    25    1
    27    12    26    1
    28    13    27    1
    29    13    28    1
    30    14    29    1
    31    14    30    1
    32    15    31    1
    33    15    32    1
