@<TRIPOS>MOLECULE

  35   37
SMALL
USER_CHARGES
@<TRIPOS>ATOM
   1 C1           3.7226    -0.7135    -0.0371 C.3          1    LIG   0.0000
   2 C2           2.3953     0.0257    -0.0205 C.ar         1    LIG   0.0000
   3 C3           2.3824     1.4162    -0.0077 C.ar         1    LIG   0.0000
   4 C4           1.1712     2.1003     0.0072 C.ar         1    LIG   0.0000
   5 C5          -0.0173     1.3776     0.0102 C.ar         1    LIG   0.0000
   6 C6          -1.2828     2.0863     0.0254 C.ar         1    LIG   0.0000
   7 C7          -1.3652     3.3315     0.6415 C.ar         1    LIG   0.0000
   8 C8          -2.5745     4.0182     0.6615 C.ar         1    LIG   0.0000
   9 C9          -3.6902     3.4439     0.0617 C.ar         1    LIG   0.0000
  10 N10         -4.9106     4.1302     0.0788 N.pl3        1    LIG  -1.0000
  11 C11         -6.0147     3.5239    -0.5341 C.2          1    LIG   0.0000
  12 C12         -6.8743     2.7205     0.0440 C.2          1    LIG   0.0000
  13 C13         -7.8756     2.3260    -1.0254 C.3          1    LIG   0.0000
  14 O14         -7.1939     2.5372    -2.2430 O.3          1    LIG   0.0000
  15 C15         -6.4063     3.6805    -1.9921 C.3          1    LIG   0.0000
  16 C16         -3.6178     2.1999    -0.5558 C.ar         1    LIG   0.0000
  17 C17         -2.4039     1.5204    -0.5722 C.ar         1    LIG   0.0000
  18 C18         -0.0137    -0.0137    -0.0015 C.ar         1    LIG   0.0000
  19 C19          1.2016    -0.6895    -0.0163 C.ar         1    LIG   0.0000
  20 H            3.5550    -1.6993    -0.0449 H            1    LIG   0.0000
  21 H            4.2371    -0.4564    -0.8552 H            1    LIG   0.0000
  22 H            4.2492    -0.4713     0.7777 H            1    LIG   0.0000
  23 H            3.2436     1.9243    -0.0092 H            1    LIG   0.0000
  24 H            1.1552     3.1001     0.0158 H            1    LIG   0.0000
  25 H           -0.5553     3.7323     1.0696 H            1    LIG   0.0000
  26 H           -2.6409     4.9137     1.1016 H            1    LIG   0.0000
  27 H           -6.8707     2.4262     0.9997 H            1    LIG   0.0000
  28 H           -8.1364     1.3655    -0.9284 H            1    LIG   0.0000
  29 H           -8.6927     2.9002    -0.9736 H            1    LIG   0.0000
  30 H           -6.9353     4.5174    -2.1328 H            1    LIG   0.0000
  31 H           -5.5978     3.6943    -2.5805 H            1    LIG   0.0000
  32 H           -4.4282     1.7987    -0.9826 H            1    LIG   0.0000
  33 H           -2.3374     0.6256    -1.0136 H            1    LIG   0.0000
  34 H           -0.8750    -0.5218     0.0008 H            1    LIG   0.0000
  35 H            1.2177    -1.6893    -0.0240 H            1    LIG   0.0000
@<TRIPOS>BOND
   1        1        2 1
   2        2        3 ar
   3        3        4 ar
   4        4        5 ar
   5        5        6 1
   6        6        7 ar
   7        7        8 ar
   8        8        9 ar
   9        9       10 1
  10       10       11 1
  11       11       12 2
  12       12       13 1
  13       13       14 1
  14       14       15 1
  15       15       11 1
  16        9       16 ar
  17       16       17 ar
  18       17        6 ar
  19        5       18 ar
  20       18       19 ar
  21       19        2 ar
  22        1       20 1
  23        1       21 1
  24        1       22 1
  25        3       23 1
  26        4       24 1
  27        7       25 1
  28        8       26 1
  29       12       27 1
  30       13       28 1
  31       13       29 1
  32       15       30 1
  33       15       31 1
  34       16       32 1
  35       17       33 1
  36       18       34 1
  37       19       35 1

@<TRIPOS>MOLECULE

  35   37
SMALL
USER_CHARGES
@<TRIPOS>ATOM
   1 C1           3.7226    -0.7135    -0.0371 C.3          1    LIG   0.0000
   2 C2           2.3953     0.0257    -0.0205 C.ar         1    LIG   0.0000
   3 C3           2.3824     1.4162    -0.0077 C.ar         1    LIG   0.0000
   4 C4           1.1712     2.1003     0.0072 C.ar         1    LIG   0.0000
   5 C5          -0.0173     1.3776     0.0102 C.ar         1    LIG   0.0000
   6 C6          -1.2828     2.0863     0.0254 C.ar         1    LIG   0.0000
   7 C7          -1.3652     3.3315     0.6415 C.ar         1    LIG   0.0000
   8 C8          -2.5745     4.0182     0.6615 C.ar         1    LIG   0.0000
   9 C9          -3.6902     3.4439     0.0617 C.ar         1    LIG   0.0000
  10 N10         -4.9106     4.1302     0.0788 N.pl3        1    LIG  -1.0000
  11 C11         -6.0147     3.5239    -0.5341 C.2          1    LIG   0.0000
  12 C12         -6.3724     3.6588    -1.7881 C.2          1    LIG   0.0000
  13 C13         -7.6219     2.8172    -1.9683 C.3          1    LIG   0.0000
  14 O14         -8.1524     2.6891    -0.6668 O.3          1    LIG   0.0000
  15 C15         -7.0084     2.6064     0.1547 C.3          1    LIG   0.0000
  16 C16         -3.6178     2.1999    -0.5558 C.ar         1    LIG   0.0000
  17 C17         -2.4039     1.5204    -0.5722 C.ar         1    LIG   0.0000
  18 C18         -0.0137    -0.0137    -0.0015 C.ar         1    LIG   0.0000
  19 C19          1.2016    -0.6895    -0.0163 C.ar         1    LIG   0.0000
  20 H            3.5550    -1.6993    -0.0449 H            1    LIG   0.0000
  21 H            4.2371    -0.4564    -0.8552 H            1    LIG   0.0000
  22 H            4.2492    -0.4713     0.7777 H            1    LIG   0.0000
  23 H            3.2436     1.9243    -0.0092 H            1    LIG   0.0000
  24 H            1.1552     3.1001     0.0158 H            1    LIG   0.0000
  25 H           -0.5553     3.7323     1.0696 H            1    LIG   0.0000
  26 H           -2.6409     4.9137     1.1016 H            1    LIG   0.0000
  27 H           -5.9131     4.2072    -2.4869 H            1    LIG   0.0000
  28 H           -8.2735     3.2767    -2.5719 H            1    LIG   0.0000
  29 H           -7.3925     1.9203    -2.3464 H            1    LIG   0.0000
  30 H           -6.6627     1.6689     0.1936 H            1    LIG   0.0000
  31 H           -7.2088     2.9265     1.0807 H            1    LIG   0.0000
  32 H           -4.4282     1.7987    -0.9826 H            1    LIG   0.0000
  33 H           -2.3374     0.6256    -1.0136 H            1    LIG   0.0000
  34 H           -0.8750    -0.5218     0.0008 H            1    LIG   0.0000
  35 H            1.2177    -1.6893    -0.0240 H            1    LIG   0.0000
@<TRIPOS>BOND
   1        1        2 1
   2        2        3 ar
   3        3        4 ar
   4        4        5 ar
   5        5        6 1
   6        6        7 ar
   7        7        8 ar
   8        8        9 ar
   9        9       10 1
  10       10       11 1
  11       11       12 2
  12       12       13 1
  13       13       14 1
  14       14       15 1
  15       15       11 1
  16        9       16 ar
  17       16       17 ar
  18       17        6 ar
  19        5       18 ar
  20       18       19 ar
  21       19        2 ar
  22        1       20 1
  23        1       21 1
  24        1       22 1
  25        3       23 1
  26        4       24 1
  27        7       25 1
  28        8       26 1
  29       12       27 1
  30       13       28 1
  31       13       29 1
  32       15       30 1
  33       15       31 1
  34       16       32 1
  35       17       33 1
  36       18       34 1
  37       19       35 1

@<TRIPOS>MOLECULE

  35   37
SMALL
USER_CHARGES
@<TRIPOS>ATOM
   1 C1           3.7226    -0.7135    -0.0371 C.3          1    LIG   0.0000
   2 C2           2.3953     0.0257    -0.0205 C.ar         1    LIG   0.0000
   3 C3           2.3824     1.4162    -0.0077 C.ar         1    LIG   0.0000
   4 C4           1.1712     2.1003     0.0072 C.ar         1    LIG   0.0000
   5 C5          -0.0173     1.3776     0.0102 C.ar         1    LIG   0.0000
   6 C6          -1.2828     2.0863     0.0254 C.ar         1    LIG   0.0000
   7 C7          -2.4735     1.3658     0.0285 C.ar         1    LIG   0.0000
   8 C8          -3.6917     2.0367     0.0426 C.ar         1    LIG   0.0000
   9 C9          -3.6995     3.4274     0.0523 C.ar         1    LIG   0.0000
  10 N10         -4.9227     4.1087     0.0661 N.pl3        1    LIG  -1.0000
  11 C11         -4.8954     5.5092     0.0757 C.2          1    LIG   0.0000
  12 C12         -4.8882     6.2887    -0.9783 C.2          1    LIG   0.0000
  13 C13         -4.8520     7.7126    -0.4557 C.3          1    LIG   0.0000
  14 O14         -4.3228     7.5975     0.8475 O.3          1    LIG   0.0000
  15 C15         -4.8552     6.3790     1.3189 C.3          1    LIG   0.0000
  16 C16         -2.5149     4.1561     0.0488 C.ar         1    LIG   0.0000
  17 C17         -1.3009     3.4769     0.0360 C.ar         1    LIG   0.0000
  18 C18         -0.0137    -0.0137    -0.0015 C.ar         1    LIG   0.0000
  19 C19          1.2016    -0.6895    -0.0163 C.ar         1    LIG   0.0000
  20 H            3.5550    -1.6993    -0.0449 H            1    LIG   0.0000
  21 H            4.2371    -0.4564    -0.8552 H            1    LIG   0.0000
  22 H            4.2492    -0.4713     0.7777 H            1    LIG   0.0000
  23 H            3.2436     1.9243    -0.0092 H            1    LIG   0.0000
  24 H            1.1552     3.1001     0.0158 H            1    LIG   0.0000
  25 H           -2.4531     0.3660     0.0205 H            1    LIG   0.0000
  26 H           -4.5511     1.5255     0.0456 H            1    LIG   0.0000
  27 H           -4.9035     6.0019    -1.9362 H            1    LIG   0.0000
  28 H           -4.2630     8.2840    -1.0272 H            1    LIG   0.0000
  29 H           -5.7722     8.1033    -0.4303 H            1    LIG   0.0000
  30 H           -5.7730     6.5106     1.6936 H            1    LIG   0.0000
  31 H           -4.2642     5.9769     2.0182 H            1    LIG   0.0000
  32 H           -2.5356     5.1558     0.0554 H            1    LIG   0.0000
  33 H           -0.4416     3.9883     0.0343 H            1    LIG   0.0000
  34 H           -0.8750    -0.5218     0.0008 H            1    LIG   0.0000
  35 H            1.2177    -1.6893    -0.0240 H            1    LIG   0.0000
@<TRIPOS>BOND
   1        1        2 1
   2        2        3 ar
   3        3        4 ar
   4        4        5 ar
   5        5        6 1
   6        6        7 ar
   7        7        8 ar
   8        8        9 ar
   9        9       10 1
  10       10       11 1
  11       11       12 2
  12       12       13 1
  13       13       14 1
  14       14       15 1
  15       15       11 1
  16        9       16 ar
  17       16       17 ar
  18       17        6 ar
  19        5       18 ar
  20       18       19 ar
  21       19        2 ar
  22        1       20 1
  23        1       21 1
  24        1       22 1
  25        3       23 1
  26        4       24 1
  27        7       25 1
  28        8       26 1
  29       12       27 1
  30       13       28 1
  31       13       29 1
  32       15       30 1
  33       15       31 1
  34       16       32 1
  35       17       33 1
  36       18       34 1
  37       19       35 1

@<TRIPOS>MOLECULE

  35   37
SMALL
USER_CHARGES
@<TRIPOS>ATOM
   1 C1           3.7226    -0.7135    -0.0371 C.3          1    LIG   0.0000
   2 C2           2.3953     0.0257    -0.0205 C.ar         1    LIG   0.0000
   3 C3           2.3824     1.4162    -0.0077 C.ar         1    LIG   0.0000
   4 C4           1.1712     2.1003     0.0072 C.ar         1    LIG   0.0000
   5 C5          -0.0173     1.3776     0.0102 C.ar         1    LIG   0.0000
   6 C6          -1.2828     2.0863     0.0254 C.ar         1    LIG   0.0000
   7 C7          -2.4735     1.3658     0.0285 C.ar         1    LIG   0.0000
   8 C8          -3.6917     2.0367     0.0426 C.ar         1    LIG   0.0000
   9 C9          -3.6995     3.4274     0.0523 C.ar         1    LIG   0.0000
  10 N10         -4.9227     4.1087     0.0661 N.pl3        1    LIG  -1.0000
  11 C11         -4.8954     5.5092     0.0757 C.2          1    LIG   0.0000
  12 C12         -4.8726     6.2739     1.1403 C.2          1    LIG   0.0000
  13 C13         -4.8531     7.7052     0.6373 C.3          1    LIG   0.0000
  14 O14         -5.3861     7.6285    -0.6673 O.3          1    LIG   0.0000
  15 C15         -4.9014     6.3969    -1.1555 C.3          1    LIG   0.0000
  16 C16         -2.5149     4.1561     0.0488 C.ar         1    LIG   0.0000
  17 C17         -1.3009     3.4769     0.0360 C.ar         1    LIG   0.0000
  18 C18         -0.0137    -0.0137    -0.0015 C.ar         1    LIG   0.0000
  19 C19          1.2016    -0.6895    -0.0163 C.ar         1    LIG   0.0000
  20 H            3.5550    -1.6993    -0.0449 H            1    LIG   0.0000
  21 H            4.2371    -0.4564    -0.8552 H            1    LIG   0.0000
  22 H            4.2492    -0.4713     0.7777 H            1    LIG   0.0000
  23 H            3.2436     1.9243    -0.0092 H            1    LIG   0.0000
  24 H            1.1552     3.1001     0.0158 H            1    LIG   0.0000
  25 H           -2.4531     0.3660     0.0205 H            1    LIG   0.0000
  26 H           -4.5511     1.5255     0.0456 H            1    LIG   0.0000
  27 H           -4.8687     5.9736     2.0941 H            1    LIG   0.0000
  28 H           -5.4196     8.2912     1.2167 H            1    LIG   0.0000
  29 H           -3.9184     8.0600     0.6169 H            1    LIG   0.0000
  30 H           -3.9791     6.4977    -1.5285 H            1    LIG   0.0000
  31 H           -5.5075     6.0276    -1.8600 H            1    LIG   0.0000
  32 H           -2.5356     5.1558     0.0554 H            1    LIG   0.0000
  33 H           -0.4416     3.9883     0.0343 H            1    LIG   0.0000
  34 H           -0.8750    -0.5218     0.0008 H            1    LIG   0.0000
  35 H            1.2177    -1.6893    -0.0240 H            1    LIG   0.0000
@<TRIPOS>BOND
   1        1        2 1
   2        2        3 ar
   3        3        4 ar
   4        4        5 ar
   5        5        6 1
   6        6        7 ar
   7        7        8 ar
   8        8        9 ar
   9        9       10 1
  10       10       11 1
  11       11       12 2
  12       12       13 1
  13       13       14 1
  14       14       15 1
  15       15       11 1
  16        9       16 ar
  17       16       17 ar
  18       17        6 ar
  19        5       18 ar
  20       18       19 ar
  21       19        2 ar
  22        1       20 1
  23        1       21 1
  24        1       22 1
  25        3       23 1
  26        4       24 1
  27        7       25 1
  28        8       26 1
  29       12       27 1
  30       13       28 1
  31       13       29 1
  32       15       30 1
  33       15       31 1
  34       16       32 1
  35       17       33 1
  36       18       34 1
  37       19       35 1

@<TRIPOS>MOLECULE

  35   37
SMALL
USER_CHARGES
@<TRIPOS>ATOM
   1 C1           3.7226    -0.7135    -0.0371 C.3          1    LIG   0.0000
   2 C2           2.3953     0.0257    -0.0205 C.ar         1    LIG   0.0000
   3 C3           2.3824     1.4162    -0.0077 C.ar         1    LIG   0.0000
   4 C4           1.1712     2.1003     0.0072 C.ar         1    LIG   0.0000
   5 C5          -0.0173     1.3776     0.0102 C.ar         1    LIG   0.0000
   6 C6          -1.2828     2.0863     0.0254 C.ar         1    LIG   0.0000
   7 C7          -1.3743     3.3414    -0.5689 C.ar         1    LIG   0.0000
   8 C8          -2.5834     4.0286    -0.5588 C.ar         1    LIG   0.0000
   9 C9          -3.6892     3.4458     0.0510 C.ar         1    LIG   0.0000
  10 N10         -4.9092     4.1329     0.0648 N.pl3        1    LIG  -1.0000
  11 C11         -6.0033     3.5179     0.6871 C.2          1    LIG   0.0000
  12 C12         -6.3397     3.6340     1.9488 C.2          1    LIG   0.0000
  13 C13         -7.5814     2.7833     2.1393 C.3          1    LIG   0.0000
  14 O14         -7.5377     1.8519     1.0799 O.3          1    LIG   0.0000
  15 C15         -6.9932     2.5895     0.0076 C.3          1    LIG   0.0000
  16 C16         -3.6074     2.1924     0.6480 C.ar         1    LIG   0.0000
  17 C17         -2.3944     1.5114     0.6322 C.ar         1    LIG   0.0000
  18 C18         -0.0137    -0.0137    -0.0015 C.ar         1    LIG   0.0000
  19 C19          1.2016    -0.6895    -0.0163 C.ar         1    LIG   0.0000
  20 H            3.5550    -1.6993    -0.0449 H            1    LIG   0.0000
  21 H            4.2371    -0.4564    -0.8552 H            1    LIG   0.0000
  22 H            4.2492    -0.4713     0.7777 H            1    LIG   0.0000
  23 H            3.2436     1.9243    -0.0092 H            1    LIG   0.0000
  24 H            1.1552     3.1001     0.0158 H            1    LIG   0.0000
  25 H           -0.5709     3.7489    -1.0030 H            1    LIG   0.0000
  26 H           -2.6567     4.9304    -0.9846 H            1    LIG   0.0000
  27 H           -5.8712     4.1756     2.6468 H            1    LIG   0.0000
  28 H           -7.5570     2.3152     3.0227 H            1    LIG   0.0000
  29 H           -8.4068     3.3449     2.0824 H            1    LIG   0.0000
  30 H           -7.7039     3.1092    -0.4667 H            1    LIG   0.0000
  31 H           -6.5306     1.9871    -0.6429 H            1    LIG   0.0000
  32 H           -4.4106     1.7857     1.0833 H            1    LIG   0.0000
  33 H           -2.3218     0.6090     1.0569 H            1    LIG   0.0000
  34 H           -0.8750    -0.5218     0.0008 H            1    LIG   0.0000
  35 H            1.2177    -1.6893    -0.0240 H            1    LIG   0.0000
@<TRIPOS>BOND
   1        1        2 1
   2        2        3 ar
   3        3        4 ar
   4        4        5 ar
   5        5        6 1
   6        6        7 ar
   7        7        8 ar
   8        8        9 ar
   9        9       10 1
  10       10       11 1
  11       11       12 2
  12       12       13 1
  13       13       14 1
  14       14       15 1
  15       15       11 1
  16        9       16 ar
  17       16       17 ar
  18       17        6 ar
  19        5       18 ar
  20       18       19 ar
  21       19        2 ar
  22        1       20 1
  23        1       21 1
  24        1       22 1
  25        3       23 1
  26        4       24 1
  27        7       25 1
  28        8       26 1
  29       12       27 1
  30       13       28 1
  31       13       29 1
  32       15       30 1
  33       15       31 1
  34       16       32 1
  35       17       33 1
  36       18       34 1
  37       19       35 1

@<TRIPOS>MOLECULE

  35   37
SMALL
USER_CHARGES
@<TRIPOS>ATOM
   1 C1           3.7226    -0.7135    -0.0371 C.3          1    LIG   0.0000
   2 C2           2.3953     0.0257    -0.0205 C.ar         1    LIG   0.0000
   3 C3           2.3824     1.4162    -0.0077 C.ar         1    LIG   0.0000
   4 C4           1.1712     2.1003     0.0072 C.ar         1    LIG   0.0000
   5 C5          -0.0173     1.3776     0.0102 C.ar         1    LIG   0.0000
   6 C6          -1.2828     2.0863     0.0254 C.ar         1    LIG   0.0000
   7 C7          -1.3743     3.3414    -0.5689 C.ar         1    LIG   0.0000
   8 C8          -2.5834     4.0286    -0.5588 C.ar         1    LIG   0.0000
   9 C9          -3.6892     3.4458     0.0510 C.ar         1    LIG   0.0000
  10 N10         -4.9092     4.1329     0.0648 N.pl3        1    LIG  -1.0000
  11 C11         -6.0033     3.5179     0.6871 C.2          1    LIG   0.0000
  12 C12         -6.8731     2.7238     0.1114 C.2          1    LIG   0.0000
  13 C13         -7.8618     2.3210     1.1894 C.3          1    LIG   0.0000
  14 O14         -7.7557     3.3365     2.1637 O.3          1    LIG   0.0000
  15 C15         -6.3862     3.6747     2.1474 C.3          1    LIG   0.0000
  16 C16         -3.6074     2.1924     0.6480 C.ar         1    LIG   0.0000
  17 C17         -2.3944     1.5114     0.6322 C.ar         1    LIG   0.0000
  18 C18         -0.0137    -0.0137    -0.0015 C.ar         1    LIG   0.0000
  19 C19          1.2016    -0.6895    -0.0163 C.ar         1    LIG   0.0000
  20 H            3.5550    -1.6993    -0.0449 H            1    LIG   0.0000
  21 H            4.2371    -0.4564    -0.8552 H            1    LIG   0.0000
  22 H            4.2492    -0.4713     0.7777 H            1    LIG   0.0000
  23 H            3.2436     1.9243    -0.0092 H            1    LIG   0.0000
  24 H            1.1552     3.1001     0.0158 H            1    LIG   0.0000
  25 H           -0.5709     3.7489    -1.0030 H            1    LIG   0.0000
  26 H           -2.6567     4.9304    -0.9846 H            1    LIG   0.0000
  27 H           -6.8830     2.4401    -0.8474 H            1    LIG   0.0000
  28 H           -8.7903     2.2809     0.8203 H            1    LIG   0.0000
  29 H           -7.6187     1.4320     1.5776 H            1    LIG   0.0000
  30 H           -5.8571     3.0530     2.7249 H            1    LIG   0.0000
  31 H           -6.2462     4.6159     2.4551 H            1    LIG   0.0000
  32 H           -4.4106     1.7857     1.0833 H            1    LIG   0.0000
  33 H           -2.3218     0.6090     1.0569 H            1    LIG   0.0000
  34 H           -0.8750    -0.5218     0.0008 H            1    LIG   0.0000
  35 H            1.2177    -1.6893    -0.0240 H            1    LIG   0.0000
@<TRIPOS>BOND
   1        1        2 1
   2        2        3 ar
   3        3        4 ar
   4        4        5 ar
   5        5        6 1
   6        6        7 ar
   7        7        8 ar
   8        8        9 ar
   9        9       10 1
  10       10       11 1
  11       11       12 2
  12       12       13 1
  13       13       14 1
  14       14       15 1
  15       15       11 1
  16        9       16 ar
  17       16       17 ar
  18       17        6 ar
  19        5       18 ar
  20       18       19 ar
  21       19        2 ar
  22        1       20 1
  23        1       21 1
  24        1       22 1
  25        3       23 1
  26        4       24 1
  27        7       25 1
  28        8       26 1
  29       12       27 1
  30       13       28 1
  31       13       29 1
  32       15       30 1
  33       15       31 1
  34       16       32 1
  35       17       33 1
  36       18       34 1
  37       19       35 1

