@<TRIPOS>MOLECULE
*****
 35 37 0 0 0
SMALL
USER_CHARGES

@<TRIPOS>ATOM
      1 C1          3.7226   -0.7135   -0.0371 C.3     1  LIG1        0.0000
      2 C2          2.3953    0.0257   -0.0205 C.ar    1  LIG1        0.0000
      3 C3          2.3824    1.4162   -0.0077 C.ar    1  LIG1        0.0000
      4 C4          1.1712    2.1003    0.0072 C.ar    1  LIG1        0.0000
      5 C5         -0.0173    1.3776    0.0102 C.ar    1  LIG1        0.0000
      6 C6         -1.2828    2.0863    0.0254 C.ar    1  LIG1        0.0000
      7 C7         -1.3743    3.3414   -0.5689 C.ar    1  LIG1        0.0000
      8 C8         -2.5834    4.0286   -0.5588 C.ar    1  LIG1        0.0000
      9 C9         -3.6892    3.4458    0.0510 C.ar    1  LIG1        0.0000
     10 N10        -4.9092    4.1329    0.0648 N.pl3   1  LIG1       -1.0000
     11 C11        -6.0033    3.5179    0.6871 C.2     1  LIG1        0.0000
     12 C12        -6.3397    3.6340    1.9488 C.2     1  LIG1        0.0000
     13 C13        -7.5814    2.7833    2.1393 C.3     1  LIG1        0.0000
     14 O14        -7.5377    1.8519    1.0799 O.3     1  LIG1        0.0000
     15 C15        -6.9932    2.5895    0.0076 C.3     1  LIG1        0.0000
     16 C16        -3.6074    2.1924    0.6480 C.ar    1  LIG1        0.0000
     17 C17        -2.3944    1.5114    0.6322 C.ar    1  LIG1        0.0000
     18 C18        -0.0137   -0.0137   -0.0015 C.ar    1  LIG1        0.0000
     19 C19         1.2016   -0.6895   -0.0163 C.ar    1  LIG1        0.0000
     20 H           3.5550   -1.6993   -0.0449 H       1  LIG1        0.0000
     21 H           4.2371   -0.4564   -0.8552 H       1  LIG1        0.0000
     22 H           4.2492   -0.4713    0.7777 H       1  LIG1        0.0000
     23 H           3.2436    1.9243   -0.0092 H       1  LIG1        0.0000
     24 H           1.1552    3.1001    0.0158 H       1  LIG1        0.0000
     25 H          -0.5709    3.7489   -1.0030 H       1  LIG1        0.0000
     26 H          -2.6567    4.9304   -0.9846 H       1  LIG1        0.0000
     27 H          -5.8712    4.1756    2.6468 H       1  LIG1        0.0000
     28 H          -7.5570    2.3152    3.0227 H       1  LIG1        0.0000
     29 H          -8.4068    3.3449    2.0824 H       1  LIG1        0.0000
     30 H          -7.7039    3.1092   -0.4667 H       1  LIG1        0.0000
     31 H          -6.5306    1.9871   -0.6429 H       1  LIG1        0.0000
     32 H          -4.4106    1.7857    1.0833 H       1  LIG1        0.0000
     33 H          -2.3218    0.6090    1.0569 H       1  LIG1        0.0000
     34 H          -0.8750   -0.5218    0.0008 H       1  LIG1        0.0000
     35 H           1.2177   -1.6893   -0.0240 H       1  LIG1        0.0000
@<TRIPOS>BOND
     1     1     2    1
     2     2     3   ar
     3     3     4   ar
     4     4     5   ar
     5     5     6    1
     6     6     7   ar
     7     7     8   ar
     8     8     9   ar
     9     9    10    1
    10    10    11    1
    11    11    12    2
    12    12    13    1
    13    13    14    1
    14    14    15    1
    15    15    11    1
    16     9    16   ar
    17    16    17   ar
    18    17     6   ar
    19     5    18   ar
    20    18    19   ar
    21    19     2   ar
    22     1    20    1
    23     1    21    1
    24     1    22    1
    25     3    23    1
    26     4    24    1
    27     7    25    1
    28     8    26    1
    29    12    27    1
    30    13    28    1
    31    13    29    1
    32    15    30    1
    33    15    31    1
    34    16    32    1
    35    17    33    1
    36    18    34    1
    37    19    35    1
