@<TRIPOS>MOLECULE
*****
 35 37 0 0 0
SMALL
USER_CHARGES

@<TRIPOS>ATOM
      1 C1          3.7226   -0.7135   -0.0371 C.3     1  LIG1        0.0000
      2 C2          2.3953    0.0257   -0.0205 C.ar    1  LIG1        0.0000
      3 C3          2.3824    1.4162   -0.0077 C.ar    1  LIG1        0.0000
      4 C4          1.1712    2.1003    0.0072 C.ar    1  LIG1        0.0000
      5 C5         -0.0173    1.3776    0.0102 C.ar    1  LIG1        0.0000
      6 C6         -1.2828    2.0863    0.0254 C.ar    1  LIG1        0.0000
      7 C7         -1.3652    3.3315    0.6415 C.ar    1  LIG1        0.0000
      8 C8         -2.5745    4.0182    0.6615 C.ar    1  LIG1        0.0000
      9 C9         -3.6902    3.4439    0.0617 C.ar    1  LIG1        0.0000
     10 N10        -4.9106    4.1302    0.0788 N.pl3   1  LIG1       -1.0000
     11 C11        -6.0147    3.5239   -0.5341 C.2     1  LIG1        0.0000
     12 C12        -6.3724    3.6588   -1.7881 C.2     1  LIG1        0.0000
     13 C13        -7.6219    2.8172   -1.9683 C.3     1  LIG1        0.0000
     14 O14        -8.1524    2.6891   -0.6668 O.3     1  LIG1        0.0000
     15 C15        -7.0084    2.6064    0.1547 C.3     1  LIG1        0.0000
     16 C16        -3.6178    2.1999   -0.5558 C.ar    1  LIG1        0.0000
     17 C17        -2.4039    1.5204   -0.5722 C.ar    1  LIG1        0.0000
     18 C18        -0.0137   -0.0137   -0.0015 C.ar    1  LIG1        0.0000
     19 C19         1.2016   -0.6895   -0.0163 C.ar    1  LIG1        0.0000
     20 H           3.5550   -1.6993   -0.0449 H       1  LIG1        0.0000
     21 H           4.2371   -0.4564   -0.8552 H       1  LIG1        0.0000
     22 H           4.2492   -0.4713    0.7777 H       1  LIG1        0.0000
     23 H           3.2436    1.9243   -0.0092 H       1  LIG1        0.0000
     24 H           1.1552    3.1001    0.0158 H       1  LIG1        0.0000
     25 H          -0.5553    3.7323    1.0696 H       1  LIG1        0.0000
     26 H          -2.6409    4.9137    1.1016 H       1  LIG1        0.0000
     27 H          -5.9131    4.2072   -2.4869 H       1  LIG1        0.0000
     28 H          -8.2735    3.2767   -2.5719 H       1  LIG1        0.0000
     29 H          -7.3925    1.9203   -2.3464 H       1  LIG1        0.0000
     30 H          -6.6627    1.6689    0.1936 H       1  LIG1        0.0000
     31 H          -7.2088    2.9265    1.0807 H       1  LIG1        0.0000
     32 H          -4.4282    1.7987   -0.9826 H       1  LIG1        0.0000
     33 H          -2.3374    0.6256   -1.0136 H       1  LIG1        0.0000
     34 H          -0.8750   -0.5218    0.0008 H       1  LIG1        0.0000
     35 H           1.2177   -1.6893   -0.0240 H       1  LIG1        0.0000
@<TRIPOS>BOND
     1     1     2    1
     2     2     3   ar
     3     3     4   ar
     4     4     5   ar
     5     5     6    1
     6     6     7   ar
     7     7     8   ar
     8     8     9   ar
     9     9    10    1
    10    10    11    1
    11    11    12    2
    12    12    13    1
    13    13    14    1
    14    14    15    1
    15    15    11    1
    16     9    16   ar
    17    16    17   ar
    18    17     6   ar
    19     5    18   ar
    20    18    19   ar
    21    19     2   ar
    22     1    20    1
    23     1    21    1
    24     1    22    1
    25     3    23    1
    26     4    24    1
    27     7    25    1
    28     8    26    1
    29    12    27    1
    30    13    28    1
    31    13    29    1
    32    15    30    1
    33    15    31    1
    34    16    32    1
    35    17    33    1
    36    18    34    1
    37    19    35    1
