@<TRIPOS>MOLECULE
*****
 35 37 0 0 0
SMALL
USER_CHARGES

@<TRIPOS>ATOM
      1 C1          3.7226   -0.7135   -0.0371 C.3     1  LIG1        0.0000
      2 C2          2.3953    0.0257   -0.0205 C.ar    1  LIG1        0.0000
      3 C3          2.3824    1.4162   -0.0077 C.ar    1  LIG1        0.0000
      4 C4          1.1712    2.1003    0.0072 C.ar    1  LIG1        0.0000
      5 C5         -0.0173    1.3776    0.0102 C.ar    1  LIG1        0.0000
      6 C6         -1.2828    2.0863    0.0254 C.ar    1  LIG1        0.0000
      7 C7         -2.4735    1.3658    0.0285 C.ar    1  LIG1        0.0000
      8 C8         -3.6917    2.0367    0.0426 C.ar    1  LIG1        0.0000
      9 C9         -3.6995    3.4274    0.0523 C.ar    1  LIG1        0.0000
     10 N10        -4.9227    4.1087    0.0661 N.pl3   1  LIG1       -1.0000
     11 C11        -4.8954    5.5092    0.0757 C.2     1  LIG1        0.0000
     12 C12        -4.8882    6.2887   -0.9783 C.2     1  LIG1        0.0000
     13 C13        -4.8520    7.7126   -0.4557 C.3     1  LIG1        0.0000
     14 O14        -4.3228    7.5975    0.8475 O.3     1  LIG1        0.0000
     15 C15        -4.8552    6.3790    1.3189 C.3     1  LIG1        0.0000
     16 C16        -2.5149    4.1561    0.0488 C.ar    1  LIG1        0.0000
     17 C17        -1.3009    3.4769    0.0360 C.ar    1  LIG1        0.0000
     18 C18        -0.0137   -0.0137   -0.0015 C.ar    1  LIG1        0.0000
     19 C19         1.2016   -0.6895   -0.0163 C.ar    1  LIG1        0.0000
     20 H           3.5550   -1.6993   -0.0449 H       1  LIG1        0.0000
     21 H           4.2371   -0.4564   -0.8552 H       1  LIG1        0.0000
     22 H           4.2492   -0.4713    0.7777 H       1  LIG1        0.0000
     23 H           3.2436    1.9243   -0.0092 H       1  LIG1        0.0000
     24 H           1.1552    3.1001    0.0158 H       1  LIG1        0.0000
     25 H          -2.4531    0.3660    0.0205 H       1  LIG1        0.0000
     26 H          -4.5511    1.5255    0.0456 H       1  LIG1        0.0000
     27 H          -4.9035    6.0019   -1.9362 H       1  LIG1        0.0000
     28 H          -4.2630    8.2840   -1.0272 H       1  LIG1        0.0000
     29 H          -5.7722    8.1033   -0.4303 H       1  LIG1        0.0000
     30 H          -5.7730    6.5106    1.6936 H       1  LIG1        0.0000
     31 H          -4.2642    5.9769    2.0182 H       1  LIG1        0.0000
     32 H          -2.5356    5.1558    0.0554 H       1  LIG1        0.0000
     33 H          -0.4416    3.9883    0.0343 H       1  LIG1        0.0000
     34 H          -0.8750   -0.5218    0.0008 H       1  LIG1        0.0000
     35 H           1.2177   -1.6893   -0.0240 H       1  LIG1        0.0000
@<TRIPOS>BOND
     1     1     2    1
     2     2     3   ar
     3     3     4   ar
     4     4     5   ar
     5     5     6    1
     6     6     7   ar
     7     7     8   ar
     8     8     9   ar
     9     9    10    1
    10    10    11    1
    11    11    12    2
    12    12    13    1
    13    13    14    1
    14    14    15    1
    15    15    11    1
    16     9    16   ar
    17    16    17   ar
    18    17     6   ar
    19     5    18   ar
    20    18    19   ar
    21    19     2   ar
    22     1    20    1
    23     1    21    1
    24     1    22    1
    25     3    23    1
    26     4    24    1
    27     7    25    1
    28     8    26    1
    29    12    27    1
    30    13    28    1
    31    13    29    1
    32    15    30    1
    33    15    31    1
    34    16    32    1
    35    17    33    1
    36    18    34    1
    37    19    35    1
