@<TRIPOS>MOLECULE

  30   32
SMALL
USER_CHARGES
@<TRIPOS>ATOM
   1 F1           2.3382     6.2007     3.7232 F            1    LIG   0.0000
   2 C2           1.6533     5.0655     3.6111 C.ar         1    LIG   0.0000
   3 C3           0.4805     4.9451     4.3487 C.ar         1    LIG   0.0000
   4 C4          -0.2671     3.7748     4.2728 C.ar         1    LIG   0.0000
   5 C5           0.1728     2.7414     3.4546 C.ar         1    LIG   0.0000
   6 F6          -0.5931     1.6535     3.4234 F            1    LIG   0.0000
   7 C7           1.3533     2.8537     2.7061 C.ar         1    LIG   0.0000
   8 C8           2.0987     4.0239     2.8001 C.ar         1    LIG   0.0000
   9 C9           3.4007     4.1405     2.0192 C.3          1    LIG   0.0000
  10 C10          4.1519     2.8195     2.1143 C.3          1    LIG   0.0000
  11 C11          3.3000     1.5962     1.7954 C.3          1    LIG   0.0000
  12 N12          1.8506     1.8506     1.8506 N.pl3        1    LIG   0.0000
  13 C13          1.0000     1.0000     1.0000 C.3          1    LIG   0.0000
  14 N14          0.6200     1.7432    -0.2136 N.pl3        1    LIG   0.0000
  15 C15         -0.4848     2.5325    -0.3643 C.2          1    LIG   0.0000
  16 N16         -0.4581     3.0106    -1.5899 N.2          1    LIG   0.0000
  17 N17          0.6163     2.5363    -2.2055 N.2          1    LIG   0.0000
  18 C18          1.2973     1.7580    -1.3969 C.2          1    LIG   0.0000
  19 H            0.1755     5.6979     4.9320 H            1    LIG   0.0000
  20 H           -1.1109     3.6783     4.8007 H            1    LIG   0.0000
  21 H            3.9601     4.8735     2.4064 H            1    LIG   0.0000
  22 H            3.2005     4.3447     1.0610 H            1    LIG   0.0000
  23 H            4.9169     2.8461     1.4709 H            1    LIG   0.0000
  24 H            4.5028     2.7239     3.0458 H            1    LIG   0.0000
  25 H            3.5303     1.2830     0.8741 H            1    LIG   0.0000
  26 H            3.5195     0.8782     2.4560 H            1    LIG   0.0000
  27 H            0.1761     0.7420     1.5046 H            1    LIG   0.0000
  28 H            1.5046     0.1761     0.7420 H            1    LIG   0.0000
  29 H           -1.1835     2.7132     0.3279 H            1    LIG   0.0000
  30 H            2.1455     1.2718    -1.6073 H            1    LIG   0.0000
@<TRIPOS>BOND
   1        1        2 1
   2        2        3 ar
   3        3        4 ar
   4        4        5 ar
   5        5        6 1
   6        5        7 ar
   7        7        8 ar
   8        8        2 ar
   9        8        9 1
  10        9       10 1
  11       10       11 1
  12       11       12 1
  13       12        7 1
  14       12       13 1
  15       13       14 1
  16       14       15 1
  17       15       16 2
  18       16       17 1
  19       17       18 2
  20       18       14 1
  21        3       19 1
  22        4       20 1
  23        9       21 1
  24        9       22 1
  25       10       23 1
  26       10       24 1
  27       11       25 1
  28       11       26 1
  29       13       27 1
  30       13       28 1
  31       15       29 1
  32       18       30 1

@<TRIPOS>MOLECULE

  30   32
SMALL
USER_CHARGES
@<TRIPOS>ATOM
   1 F1           6.2202     2.3750     3.6669 F            1    LIG   0.0000
   2 C2           5.4125     2.3055     2.6118 C.ar         1    LIG   0.0000
   3 C3           5.9859     2.4367     1.3516 C.ar         1    LIG   0.0000
   4 C4           5.1833     2.3799     0.2174 C.ar         1    LIG   0.0000
   5 C5           3.8146     2.1898     0.3643 C.ar         1    LIG   0.0000
   6 F6           3.1068     2.1384    -0.7615 F            1    LIG   0.0000
   7 C7           3.2272     2.0553     1.6305 C.ar         1    LIG   0.0000
   8 C8           4.0386     2.1264     2.7577 C.ar         1    LIG   0.0000
   9 C9           3.4047     2.0178     4.1379 C.3          1    LIG   0.0000
  10 C10          2.1122     2.8226     4.1508 C.3          1    LIG   0.0000
  11 C11          1.1862     2.5295     2.9758 C.3          1    LIG   0.0000
  12 N12          1.8506     1.8506     1.8506 N.pl3        1    LIG   0.0000
  13 C13          1.0000     1.0000     1.0000 C.3          1    LIG   0.0000
  14 N14          0.6200     1.7432    -0.2136 N.pl3        1    LIG   0.0000
  15 C15          0.2754     3.0636    -0.2771 C.2          1    LIG   0.0000
  16 N16          0.0060     3.3362    -1.5358 N.2          1    LIG   0.0000
  17 N17          0.1601     2.2298    -2.2504 N.2          1    LIG   0.0000
  18 C18          0.5329     1.2369    -1.4767 C.2          1    LIG   0.0000
  19 H            6.9727     2.5714     1.2613 H            1    LIG   0.0000
  20 H            5.5862     2.4748    -0.6930 H            1    LIG   0.0000
  21 H            4.0333     2.3810     4.8257 H            1    LIG   0.0000
  22 H            3.2054     1.0593     4.3415 H            1    LIG   0.0000
  23 H            1.6214     2.6154     4.9970 H            1    LIG   0.0000
  24 H            2.3470     3.7945     4.1310 H            1    LIG   0.0000
  25 H            0.4406     1.9471     3.2997 H            1    LIG   0.0000
  26 H            0.8126     3.3961     2.6450 H            1    LIG   0.0000
  27 H            0.1761     0.7420     1.5046 H            1    LIG   0.0000
  28 H            1.5046     0.1761     0.7420 H            1    LIG   0.0000
  29 H            0.2354     3.7037     0.4902 H            1    LIG   0.0000
  30 H            0.7167     0.2951    -1.7581 H            1    LIG   0.0000
@<TRIPOS>BOND
   1        1        2 1
   2        2        3 ar
   3        3        4 ar
   4        4        5 ar
   5        5        6 1
   6        5        7 ar
   7        7        8 ar
   8        8        2 ar
   9        8        9 1
  10        9       10 1
  11       10       11 1
  12       11       12 1
  13       12        7 1
  14       12       13 1
  15       13       14 1
  16       14       15 1
  17       15       16 2
  18       16       17 1
  19       17       18 2
  20       18       14 1
  21        3       19 1
  22        4       20 1
  23        9       21 1
  24        9       22 1
  25       10       23 1
  26       10       24 1
  27       11       25 1
  28       11       26 1
  29       13       27 1
  30       13       28 1
  31       15       29 1
  32       18       30 1

@<TRIPOS>MOLECULE

  30   32
SMALL
USER_CHARGES
@<TRIPOS>ATOM
   1 F1           5.8365     1.9740     4.4515 F            1    LIG   0.0000
   2 C2           5.2332     1.8211     3.2755 C.ar         1    LIG   0.0000
   3 C3           6.0357     1.5711     2.1675 C.ar         1    LIG   0.0000
   4 C4           5.4541     1.4122     0.9142 C.ar         1    LIG   0.0000
   5 C5           4.0730     1.5044     0.7912 C.ar         1    LIG   0.0000
   6 F6           3.5822     1.3357    -0.4342 F            1    LIG   0.0000
   7 C7           3.2554     1.7550     1.9026 C.ar         1    LIG   0.0000
   8 C8           3.8498     1.9246     3.1484 C.ar         1    LIG   0.0000
   9 C9           2.9729     2.2331     4.3544 C.3          1    LIG   0.0000
  10 C10          1.9052     3.2376     3.9428 C.3          1    LIG   0.0000
  11 C11          1.1610     2.8649     2.6656 C.3          1    LIG   0.0000
  12 N12          1.8506     1.8506     1.8506 N.pl3        1    LIG   0.0000
  13 C13          1.0000     1.0000     1.0000 C.3          1    LIG   0.0000
  14 N14          0.6200     1.7432    -0.2136 N.pl3        1    LIG   0.0000
  15 C15         -0.6045     1.7285    -0.8191 C.2          1    LIG   0.0000
  16 N16         -0.5301     2.5191    -1.8684 N.2          1    LIG   0.0000
  17 N17          0.6987     3.0124    -1.9398 N.2          1    LIG   0.0000
  18 C18          1.4290     2.5596    -0.9473 C.2          1    LIG   0.0000
  19 H            7.0281     1.5057     2.2716 H            1    LIG   0.0000
  20 H            6.0229     1.2337     0.1113 H            1    LIG   0.0000
  21 H            3.5332     2.6198     5.0869 H            1    LIG   0.0000
  22 H            2.5370     1.3927     4.6765 H            1    LIG   0.0000
  23 H            1.2390     3.3099     4.6850 H            1    LIG   0.0000
  24 H            2.3455     4.1244     3.8026 H            1    LIG   0.0000
  25 H            0.2613     2.5086     2.9175 H            1    LIG   0.0000
  26 H            1.0497     3.6909     2.1131 H            1    LIG   0.0000
  27 H            0.1761     0.7420     1.5046 H            1    LIG   0.0000
  28 H            1.5046     0.1761     0.7420 H            1    LIG   0.0000
  29 H           -1.4077     1.2130    -0.5206 H            1    LIG   0.0000
  30 H            2.3891     2.7716    -0.7652 H            1    LIG   0.0000
@<TRIPOS>BOND
   1        1        2 1
   2        2        3 ar
   3        3        4 ar
   4        4        5 ar
   5        5        6 1
   6        5        7 ar
   7        7        8 ar
   8        8        2 ar
   9        8        9 1
  10        9       10 1
  11       10       11 1
  12       11       12 1
  13       12        7 1
  14       12       13 1
  15       13       14 1
  16       14       15 1
  17       15       16 2
  18       16       17 1
  19       17       18 2
  20       18       14 1
  21        3       19 1
  22        4       20 1
  23        9       21 1
  24        9       22 1
  25       10       23 1
  26       10       24 1
  27       11       25 1
  28       11       26 1
  29       13       27 1
  30       13       28 1
  31       15       29 1
  32       18       30 1

@<TRIPOS>MOLECULE

  30   32
SMALL
USER_CHARGES
@<TRIPOS>ATOM
   1 F1           2.9824     2.9329     6.3467 F            1    LIG   0.0000
   2 C2           2.9272     2.0485     5.3542 C.ar         1    LIG   0.0000
   3 C3           3.4013     0.7657     5.6072 C.ar         1    LIG   0.0000
   4 C4           3.3734    -0.1929     4.6001 C.ar         1    LIG   0.0000
   5 C5           2.8670     0.1495     3.3521 C.ar         1    LIG   0.0000
   6 F6           2.8634    -0.8166     2.4370 F            1    LIG   0.0000
   7 C7           2.3856     1.4398     3.0877 C.ar         1    LIG   0.0000
   8 C8           2.4305     2.3932     4.0991 C.ar         1    LIG   0.0000
   9 C9           1.9436     3.8067     3.8102 C.3          1    LIG   0.0000
  10 C10          2.4325     4.2234     2.4298 C.3          1    LIG   0.0000
  11 C11          2.1581     3.1961     1.3373 C.3          1    LIG   0.0000
  12 N12          1.8506     1.8506     1.8506 N.pl3        1    LIG   0.0000
  13 C13          1.0000     1.0000     1.0000 C.3          1    LIG   0.0000
  14 N14          0.6200     1.7432    -0.2136 N.pl3        1    LIG   0.0000
  15 C15         -0.4848     2.5325    -0.3643 C.2          1    LIG   0.0000
  16 N16         -0.4581     3.0106    -1.5899 N.2          1    LIG   0.0000
  17 N17          0.6163     2.5363    -2.2055 N.2          1    LIG   0.0000
  18 C18          1.2973     1.7580    -1.3969 C.2          1    LIG   0.0000
  19 H            3.7613     0.5334     6.5107 H            1    LIG   0.0000
  20 H            3.7136    -1.1174     4.7719 H            1    LIG   0.0000
  21 H            2.3069     4.4343     4.4987 H            1    LIG   0.0000
  22 H            0.9441     3.8289     3.8333 H            1    LIG   0.0000
  23 H            1.9767     5.0776     2.1796 H            1    LIG   0.0000
  24 H            3.4199     4.3742     2.4784 H            1    LIG   0.0000
  25 H            1.3794     3.5125     0.7955 H            1    LIG   0.0000
  26 H            2.9673     3.1334     0.7531 H            1    LIG   0.0000
  27 H            0.1761     0.7420     1.5046 H            1    LIG   0.0000
  28 H            1.5046     0.1761     0.7420 H            1    LIG   0.0000
  29 H           -1.1835     2.7132     0.3279 H            1    LIG   0.0000
  30 H            2.1455     1.2718    -1.6073 H            1    LIG   0.0000
@<TRIPOS>BOND
   1        1        2 1
   2        2        3 ar
   3        3        4 ar
   4        4        5 ar
   5        5        6 1
   6        5        7 ar
   7        7        8 ar
   8        8        2 ar
   9        8        9 1
  10        9       10 1
  11       10       11 1
  12       11       12 1
  13       12        7 1
  14       12       13 1
  15       13       14 1
  16       14       15 1
  17       15       16 2
  18       16       17 1
  19       17       18 2
  20       18       14 1
  21        3       19 1
  22        4       20 1
  23        9       21 1
  24        9       22 1
  25       10       23 1
  26       10       24 1
  27       11       25 1
  28       11       26 1
  29       13       27 1
  30       13       28 1
  31       15       29 1
  32       18       30 1

@<TRIPOS>MOLECULE

  30   32
SMALL
USER_CHARGES
@<TRIPOS>ATOM
   1 F1           4.0588     6.0583     2.1450 F            1    LIG   0.0000
   2 C2           2.9360     5.3519     2.0420 C.ar         1    LIG   0.0000
   3 C3           1.7364     6.0533     1.9845 C.ar         1    LIG   0.0000
   4 C4           0.5345     5.3608     1.8853 C.ar         1    LIG   0.0000
   5 C5           0.5539     3.9719     1.8428 C.ar         1    LIG   0.0000
   6 F6          -0.6301     3.3731     1.7408 F            1    LIG   0.0000
   7 C7           1.7583     3.2558     1.8990 C.ar         1    LIG   0.0000
   8 C8           2.9527     3.9592     2.0109 C.ar         1    LIG   0.0000
   9 C9           4.2625     3.1888     2.1091 C.3          1    LIG   0.0000
  10 C10          4.0625     1.9930     3.0301 C.3          1    LIG   0.0000
  11 C11          2.8298     1.1573     2.7044 C.3          1    LIG   0.0000
  12 N12          1.8506     1.8506     1.8506 N.pl3        1    LIG   0.0000
  13 C13          1.0000     1.0000     1.0000 C.3          1    LIG   0.0000
  14 N14          0.6200     1.7432    -0.2136 N.pl3        1    LIG   0.0000
  15 C15         -0.6045     1.7285    -0.8191 C.2          1    LIG   0.0000
  16 N16         -0.5301     2.5191    -1.8684 N.2          1    LIG   0.0000
  17 N17          0.6987     3.0124    -1.9398 N.2          1    LIG   0.0000
  18 C18          1.4290     2.5596    -0.9473 C.2          1    LIG   0.0000
  19 H            1.7382     7.0528     2.0145 H            1    LIG   0.0000
  20 H           -0.3332     5.8562     1.8450 H            1    LIG   0.0000
  21 H            4.9749     3.7838     2.4812 H            1    LIG   0.0000
  22 H            4.5343     2.8713     1.2007 H            1    LIG   0.0000
  23 H            4.8682     1.4048     2.9608 H            1    LIG   0.0000
  24 H            3.9752     2.3296     3.9677 H            1    LIG   0.0000
  25 H            3.1273     0.3271     2.2329 H            1    LIG   0.0000
  26 H            2.3805     0.9103     3.5629 H            1    LIG   0.0000
  27 H            0.1761     0.7420     1.5046 H            1    LIG   0.0000
  28 H            1.5046     0.1761     0.7420 H            1    LIG   0.0000
  29 H           -1.4077     1.2130    -0.5206 H            1    LIG   0.0000
  30 H            2.3891     2.7716    -0.7652 H            1    LIG   0.0000
@<TRIPOS>BOND
   1        1        2 1
   2        2        3 ar
   3        3        4 ar
   4        4        5 ar
   5        5        6 1
   6        5        7 ar
   7        7        8 ar
   8        8        2 ar
   9        8        9 1
  10        9       10 1
  11       10       11 1
  12       11       12 1
  13       12        7 1
  14       12       13 1
  15       13       14 1
  16       14       15 1
  17       15       16 2
  18       16       17 1
  19       17       18 2
  20       18       14 1
  21        3       19 1
  22        4       20 1
  23        9       21 1
  24        9       22 1
  25       10       23 1
  26       10       24 1
  27       11       25 1
  28       11       26 1
  29       13       27 1
  30       13       28 1
  31       15       29 1
  32       18       30 1

@<TRIPOS>MOLECULE

  30   32
SMALL
USER_CHARGES
@<TRIPOS>ATOM
   1 F1           2.0730     4.0789     6.0644 F            1    LIG   0.0000
   2 C2           1.5082     3.9350     4.8684 C.ar         1    LIG   0.0000
   3 C3           0.4474     4.7683     4.5295 C.ar         1    LIG   0.0000
   4 C4          -0.1694     4.6637     3.2876 C.ar         1    LIG   0.0000
   5 C5           0.2876     3.7042     2.3891 C.ar         1    LIG   0.0000
   6 F6          -0.3533     3.6555     1.2236 F            1    LIG   0.0000
   7 C7           1.3494     2.8494     2.7019 C.ar         1    LIG   0.0000
   8 C8           1.9593     2.9988     3.9445 C.ar         1    LIG   0.0000
   9 C9           3.1416     2.0966     4.2630 C.3          1    LIG   0.0000
  10 C10          4.0401     2.0804     3.0315 C.3          1    LIG   0.0000
  11 C11          3.3080     1.6398     1.7703 C.3          1    LIG   0.0000
  12 N12          1.8499     1.8499     1.8499 N.pl3        1    LIG   0.0000
  13 C13          1.0000     1.0000     1.0000 C.3          1    LIG   0.0000
  14 N14          0.6200     1.7432    -0.2136 N.pl3        1    LIG   0.0000
  15 C15         -0.6045     1.7285    -0.8191 C.2          1    LIG   0.0000
  16 N16         -0.5301     2.5191    -1.8684 N.2          1    LIG   0.0000
  17 N17          0.6987     3.0124    -1.9398 N.2          1    LIG   0.0000
  18 C18          1.4290     2.5596    -0.9473 C.2          1    LIG   0.0000
  19 H            0.1248     5.4500     5.1861 H            1    LIG   0.0000
  20 H           -0.9283     5.2677     3.0443 H            1    LIG   0.0000
  21 H            2.8216     1.1712     4.4660 H            1    LIG   0.0000
  22 H            3.6444     2.4554     5.0495 H            1    LIG   0.0000
  23 H            4.3996     3.0022     2.8865 H            1    LIG   0.0000
  24 H            4.7980     1.4495     3.1976 H            1    LIG   0.0000
  25 H            3.6639     2.1626     0.9956 H            1    LIG   0.0000
  26 H            3.4825     0.6661     1.6237 H            1    LIG   0.0000
  27 H            0.1761     0.7420     1.5046 H            1    LIG   0.0000
  28 H            1.5046     0.1761     0.7420 H            1    LIG   0.0000
  29 H           -1.4077     1.2130    -0.5206 H            1    LIG   0.0000
  30 H            2.3891     2.7716    -0.7652 H            1    LIG   0.0000
@<TRIPOS>BOND
   1        1        2 1
   2        2        3 ar
   3        3        4 ar
   4        4        5 ar
   5        5        6 1
   6        5        7 ar
   7        7        8 ar
   8        8        2 ar
   9        8        9 1
  10        9       10 1
  11       10       11 1
  12       11       12 1
  13       12        7 1
  14       12       13 1
  15       13       14 1
  16       14       15 1
  17       15       16 2
  18       16       17 1
  19       17       18 2
  20       18       14 1
  21        3       19 1
  22        4       20 1
  23        9       21 1
  24        9       22 1
  25       10       23 1
  26       10       24 1
  27       11       25 1
  28       11       26 1
  29       13       27 1
  30       13       28 1
  31       15       29 1
  32       18       30 1

@<TRIPOS>MOLECULE

  30   32
SMALL
USER_CHARGES
@<TRIPOS>ATOM
   1 F1           2.5856     3.2904     6.3403 F            1    LIG   0.0000
   2 C2           1.8088     3.2415     5.2613 C.ar         1    LIG   0.0000
   3 C3           0.5692     3.8705     5.3054 C.ar         1    LIG   0.0000
   4 C4          -0.2745     3.8563     4.2001 C.ar         1    LIG   0.0000
   5 C5           0.1389     3.1941     3.0479 C.ar         1    LIG   0.0000
   6 F6          -0.7212     3.2146     2.0324 F            1    LIG   0.0000
   7 C7           1.3776     2.5492     2.9739 C.ar         1    LIG   0.0000
   8 C8           2.2069     2.6049     4.0908 C.ar         1    LIG   0.0000
   9 C9           3.5709     1.9397     3.9906 C.3          1    LIG   0.0000
  10 C10          4.1683     2.3381     2.6457 C.3          1    LIG   0.0000
  11 C11          3.2693     1.9796     1.4691 C.3          1    LIG   0.0000
  12 N12          1.8499     1.8499     1.8499 N.pl3        1    LIG   0.0000
  13 C13          1.0000     1.0000     1.0000 C.3          1    LIG   0.0000
  14 N14          0.6200     1.7432    -0.2136 N.pl3        1    LIG   0.0000
  15 C15          0.2754     3.0636    -0.2771 C.2          1    LIG   0.0000
  16 N16          0.0060     3.3362    -1.5358 N.2          1    LIG   0.0000
  17 N17          0.1601     2.2298    -2.2504 N.2          1    LIG   0.0000
  18 C18          0.5329     1.2369    -1.4767 C.2          1    LIG   0.0000
  19 H            0.2815     4.3382     6.1412 H            1    LIG   0.0000
  20 H           -1.1630     4.3140     4.2326 H            1    LIG   0.0000
  21 H            3.4721     0.9459     4.0408 H            1    LIG   0.0000
  22 H            4.1610     2.2540     4.7343 H            1    LIG   0.0000
  23 H            4.3182     3.3268     2.6433 H            1    LIG   0.0000
  24 H            5.0437     1.8679     2.5334 H            1    LIG   0.0000
  25 H            3.3496     2.6962     0.7763 H            1    LIG   0.0000
  26 H            3.5776     1.1090     1.0856 H            1    LIG   0.0000
  27 H            0.1761     0.7420     1.5046 H            1    LIG   0.0000
  28 H            1.5046     0.1761     0.7420 H            1    LIG   0.0000
  29 H            0.2354     3.7037     0.4902 H            1    LIG   0.0000
  30 H            0.7167     0.2951    -1.7581 H            1    LIG   0.0000
@<TRIPOS>BOND
   1        1        2 1
   2        2        3 ar
   3        3        4 ar
   4        4        5 ar
   5        5        6 1
   6        5        7 ar
   7        7        8 ar
   8        8        2 ar
   9        8        9 1
  10        9       10 1
  11       10       11 1
  12       11       12 1
  13       12        7 1
  14       12       13 1
  15       13       14 1
  16       14       15 1
  17       15       16 2
  18       16       17 1
  19       17       18 2
  20       18       14 1
  21        3       19 1
  22        4       20 1
  23        9       21 1
  24        9       22 1
  25       10       23 1
  26       10       24 1
  27       11       25 1
  28       11       26 1
  29       13       27 1
  30       13       28 1
  31       15       29 1
  32       18       30 1

@<TRIPOS>MOLECULE

  30   32
SMALL
USER_CHARGES
@<TRIPOS>ATOM
   1 F1           5.5586     4.8538     1.8039 F            1    LIG   0.0000
   2 C2           5.0656     3.6329     1.6131 C.ar         1    LIG   0.0000
   3 C3           5.9276     2.6262     1.1914 C.ar         1    LIG   0.0000
   4 C4           5.4624     1.3317     0.9878 C.ar         1    LIG   0.0000
   5 C5           4.1151     1.0598     1.2060 C.ar         1    LIG   0.0000
   6 F6           3.7384    -0.1974     0.9848 F            1    LIG   0.0000
   7 C7           3.2228     2.0512     1.6265 C.ar         1    LIG   0.0000
   8 C8           3.7282     3.3301     1.8442 C.ar         1    LIG   0.0000
   9 C9           2.7632     4.3945     2.3436 C.3          1    LIG   0.0000
  10 C10          1.9331     3.7633     3.4557 C.3          1    LIG   0.0000
  11 C11          1.2094     2.4991     3.0095 C.3          1    LIG   0.0000
  12 N12          1.8499     1.8499     1.8499 N.pl3        1    LIG   0.0000
  13 C13          1.0000     1.0000     1.0000 C.3          1    LIG   0.0000
  14 N14          0.6200     1.7432    -0.2136 N.pl3        1    LIG   0.0000
  15 C15         -0.4848     2.5325    -0.3643 C.2          1    LIG   0.0000
  16 N16         -0.4581     3.0106    -1.5899 N.2          1    LIG   0.0000
  17 N17          0.6163     2.5363    -2.2055 N.2          1    LIG   0.0000
  18 C18          1.2973     1.7580    -1.3969 C.2          1    LIG   0.0000
  19 H            6.8924     2.8357     1.0327 H            1    LIG   0.0000
  20 H            6.0854     0.6085     0.6898 H            1    LIG   0.0000
  21 H            2.1671     4.6933     1.5984 H            1    LIG   0.0000
  22 H            3.2719     5.1788     2.6986 H            1    LIG   0.0000
  23 H            2.5407     3.5321     4.2155 H            1    LIG   0.0000
  24 H            1.2530     4.4288     3.7633 H            1    LIG   0.0000
  25 H            1.1984     1.8519     3.7718 H            1    LIG   0.0000
  26 H            0.2706     2.7391     2.7626 H            1    LIG   0.0000
  27 H            0.1761     0.7420     1.5046 H            1    LIG   0.0000
  28 H            1.5046     0.1761     0.7420 H            1    LIG   0.0000
  29 H           -1.1835     2.7132     0.3279 H            1    LIG   0.0000
  30 H            2.1455     1.2718    -1.6073 H            1    LIG   0.0000
@<TRIPOS>BOND
   1        1        2 1
   2        2        3 ar
   3        3        4 ar
   4        4        5 ar
   5        5        6 1
   6        5        7 ar
   7        7        8 ar
   8        8        2 ar
   9        8        9 1
  10        9       10 1
  11       10       11 1
  12       11       12 1
  13       12        7 1
  14       12       13 1
  15       13       14 1
  16       14       15 1
  17       15       16 2
  18       16       17 1
  19       17       18 2
  20       18       14 1
  21        3       19 1
  22        4       20 1
  23        9       21 1
  24        9       22 1
  25       10       23 1
  26       10       24 1
  27       11       25 1
  28       11       26 1
  29       13       27 1
  30       13       28 1
  31       15       29 1
  32       18       30 1

@<TRIPOS>MOLECULE

  30   32
SMALL
USER_CHARGES
@<TRIPOS>ATOM
   1 F1           5.5481     1.8015     4.8667 F            1    LIG   0.0000
   2 C2           4.3028     1.4402     4.5685 C.ar         1    LIG   0.0000
   3 C3           3.5990     0.6635     5.4827 C.ar         1    LIG   0.0000
   4 C4           2.2914     0.2690     5.2216 C.ar         1    LIG   0.0000
   5 C5           1.6986     0.6583     4.0241 C.ar         1    LIG   0.0000
   6 F6           0.4492     0.2392     3.8374 F            1    LIG   0.0000
   7 C7           2.3815     1.4358     3.0833 C.ar         1    LIG   0.0000
   8 C8           3.6803     1.8334     3.3889 C.ar         1    LIG   0.0000
   9 C9           4.4033     2.7153     2.3826 C.3          1    LIG   0.0000
  10 C10          3.4197     3.7927     1.9398 C.3          1    LIG   0.0000
  11 C11          2.1280     3.2178     1.3723 C.3          1    LIG   0.0000
  12 N12          1.8499     1.8499     1.8499 N.pl3        1    LIG   0.0000
  13 C13          1.0000     1.0000     1.0000 C.3          1    LIG   0.0000
  14 N14          0.6200     1.7432    -0.2136 N.pl3        1    LIG   0.0000
  15 C15         -0.4848     2.5325    -0.3643 C.2          1    LIG   0.0000
  16 N16         -0.4581     3.0106    -1.5899 N.2          1    LIG   0.0000
  17 N17          0.6163     2.5363    -2.2055 N.2          1    LIG   0.0000
  18 C18          1.2973     1.7580    -1.3969 C.2          1    LIG   0.0000
  19 H            4.0381     0.3857     6.3371 H            1    LIG   0.0000
  20 H            1.7856    -0.2849     5.8829 H            1    LIG   0.0000
  21 H            4.6926     2.1709     1.5953 H            1    LIG   0.0000
  22 H            5.2039     3.1365     2.8089 H            1    LIG   0.0000
  23 H            3.1951     4.3639     2.7292 H            1    LIG   0.0000
  24 H            3.8559     4.3533     1.2359 H            1    LIG   0.0000
  25 H            1.3692     3.8105     1.6424 H            1    LIG   0.0000
  26 H            2.1979     3.1994     0.3749 H            1    LIG   0.0000
  27 H            0.1761     0.7420     1.5046 H            1    LIG   0.0000
  28 H            1.5046     0.1761     0.7420 H            1    LIG   0.0000
  29 H           -1.1835     2.7132     0.3279 H            1    LIG   0.0000
  30 H            2.1455     1.2718    -1.6073 H            1    LIG   0.0000
@<TRIPOS>BOND
   1        1        2 1
   2        2        3 ar
   3        3        4 ar
   4        4        5 ar
   5        5        6 1
   6        5        7 ar
   7        7        8 ar
   8        8        2 ar
   9        8        9 1
  10        9       10 1
  11       10       11 1
  12       11       12 1
  13       12        7 1
  14       12       13 1
  15       13       14 1
  16       14       15 1
  17       15       16 2
  18       16       17 1
  19       17       18 2
  20       18       14 1
  21        3       19 1
  22        4       20 1
  23        9       21 1
  24        9       22 1
  25       10       23 1
  26       10       24 1
  27       11       25 1
  28       11       26 1
  29       13       27 1
  30       13       28 1
  31       15       29 1
  32       18       30 1

@<TRIPOS>MOLECULE

  30   32
SMALL
USER_CHARGES
@<TRIPOS>ATOM
   1 F1           5.2808     5.1458     2.5800 F            1    LIG   0.0000
   2 C2           4.7939     4.1179     1.8922 C.ar         1    LIG   0.0000
   3 C3           5.5322     3.6628     0.8041 C.ar         1    LIG   0.0000
   4 C4           5.0598     2.5805     0.0703 C.ar         1    LIG   0.0000
   5 C5           3.8586     1.9679     0.4189 C.ar         1    LIG   0.0000
   6 F6           3.5078     0.9510    -0.3573 F            1    LIG   0.0000
   7 C7           3.0921     2.4138     1.5000 C.ar         1    LIG   0.0000
   8 C8           3.6071     3.4853     2.2345 C.ar         1    LIG   0.0000
   9 C9           2.8643     4.0052     3.4569 C.3          1    LIG   0.0000
  10 C10          1.3913     3.6212     3.4829 C.3          1    LIG   0.0000
  11 C11          1.2686     2.1361     3.1727 C.3          1    LIG   0.0000
  12 N12          1.8488     1.8488     1.8488 N.pl3        1    LIG   0.0000
  13 C13          1.0000     1.0000     1.0000 C.3          1    LIG   0.0000
  14 N14          0.6200     1.7432    -0.2136 N.pl3        1    LIG   0.0000
  15 C15          0.2754     3.0636    -0.2771 C.2          1    LIG   0.0000
  16 N16          0.0060     3.3362    -1.5358 N.2          1    LIG   0.0000
  17 N17          0.1601     2.2298    -2.2504 N.2          1    LIG   0.0000
  18 C18          0.5329     1.2369    -1.4767 C.2          1    LIG   0.0000
  19 H            6.3915     4.1084     0.5532 H            1    LIG   0.0000
  20 H            5.5842     2.2408    -0.7105 H            1    LIG   0.0000
  21 H            2.9312     5.0029     3.4671 H            1    LIG   0.0000
  22 H            3.3026     3.6333     4.2752 H            1    LIG   0.0000
  23 H            1.0108     3.8083     4.3885 H            1    LIG   0.0000
  24 H            0.8934     4.1507     2.7961 H            1    LIG   0.0000
  25 H            1.7569     1.6107     3.8694 H            1    LIG   0.0000
  26 H            0.3031     1.8760     3.1747 H            1    LIG   0.0000
  27 H            0.1761     0.7420     1.5046 H            1    LIG   0.0000
  28 H            1.5046     0.1761     0.7420 H            1    LIG   0.0000
  29 H            0.2354     3.7037     0.4902 H            1    LIG   0.0000
  30 H            0.7167     0.2951    -1.7581 H            1    LIG   0.0000
@<TRIPOS>BOND
   1        1        2 1
   2        2        3 ar
   3        3        4 ar
   4        4        5 ar
   5        5        6 1
   6        5        7 ar
   7        7        8 ar
   8        8        2 ar
   9        8        9 1
  10        9       10 1
  11       10       11 1
  12       11       12 1
  13       12        7 1
  14       12       13 1
  15       13       14 1
  16       14       15 1
  17       15       16 2
  18       16       17 1
  19       17       18 2
  20       18       14 1
  21        3       19 1
  22        4       20 1
  23        9       21 1
  24        9       22 1
  25       10       23 1
  26       10       24 1
  27       11       25 1
  28       11       26 1
  29       13       27 1
  30       13       28 1
  31       15       29 1
  32       18       30 1

@<TRIPOS>MOLECULE

  30   32
SMALL
USER_CHARGES
@<TRIPOS>ATOM
   1 F1           6.0118     3.9539     3.0409 F            1    LIG   0.0000
   2 C2           5.3409     2.9201     2.5429 C.ar         1    LIG   0.0000
   3 C3           6.0785     1.8310     2.0895 C.ar         1    LIG   0.0000
   4 C4           5.4089     0.7264     1.5752 C.ar         1    LIG   0.0000
   5 C5           4.0178     0.7180     1.5096 C.ar         1    LIG   0.0000
   6 F6           3.4925    -0.3860     0.9950 F            1    LIG   0.0000
   7 C7           3.2542     1.8046     1.9472 C.ar         1    LIG   0.0000
   8 C8           3.9548     2.8878     2.4843 C.ar         1    LIG   0.0000
   9 C9           3.2029     4.0934     3.0300 C.3          1    LIG   0.0000
  10 C10          1.7797     4.2127     2.5031 C.3          1    LIG   0.0000
  11 C11          1.1001     2.8559     2.6214 C.3          1    LIG   0.0000
  12 N12          1.8488     1.8488     1.8488 N.pl3        1    LIG   0.0000
  13 C13          1.0000     1.0000     1.0000 C.3          1    LIG   0.0000
  14 N14          0.6200     1.7432    -0.2136 N.pl3        1    LIG   0.0000
  15 C15         -0.6045     1.7285    -0.8191 C.2          1    LIG   0.0000
  16 N16         -0.5301     2.5191    -1.8684 N.2          1    LIG   0.0000
  17 N17          0.6987     3.0124    -1.9398 N.2          1    LIG   0.0000
  18 C18          1.4290     2.5596    -0.9473 C.2          1    LIG   0.0000
  19 H            7.0775     1.8425     2.1330 H            1    LIG   0.0000
  20 H            5.9278    -0.0647     1.2513 H            1    LIG   0.0000
  21 H            3.7045     4.9204     2.7762 H            1    LIG   0.0000
  22 H            3.1660     4.0185     4.0265 H            1    LIG   0.0000
  23 H            1.2770     4.8889     3.0417 H            1    LIG   0.0000
  24 H            1.7985     4.4972     1.5446 H            1    LIG   0.0000
  25 H            1.0720     2.5822     3.5828 H            1    LIG   0.0000
  26 H            0.1677     2.9203     2.2657 H            1    LIG   0.0000
  27 H            0.1761     0.7420     1.5046 H            1    LIG   0.0000
  28 H            1.5046     0.1761     0.7420 H            1    LIG   0.0000
  29 H           -1.4077     1.2130    -0.5206 H            1    LIG   0.0000
  30 H            2.3891     2.7716    -0.7652 H            1    LIG   0.0000
@<TRIPOS>BOND
   1        1        2 1
   2        2        3 ar
   3        3        4 ar
   4        4        5 ar
   5        5        6 1
   6        5        7 ar
   7        7        8 ar
   8        8        2 ar
   9        8        9 1
  10        9       10 1
  11       10       11 1
  12       11       12 1
  13       12        7 1
  14       12       13 1
  15       13       14 1
  16       14       15 1
  17       15       16 2
  18       16       17 1
  19       17       18 2
  20       18       14 1
  21        3       19 1
  22        4       20 1
  23        9       21 1
  24        9       22 1
  25       10       23 1
  26       10       24 1
  27       11       25 1
  28       11       26 1
  29       13       27 1
  30       13       28 1
  31       15       29 1
  32       18       30 1

