@<TRIPOS>MOLECULE
*****
 30 32 0 0 0
SMALL
USER_CHARGES

@<TRIPOS>ATOM
      1 F1          6.0118    3.9539    3.0409 F       1  LIG1        0.0000
      2 C2          5.3409    2.9201    2.5429 C.ar    1  LIG1        0.0000
      3 C3          6.0785    1.8310    2.0895 C.ar    1  LIG1        0.0000
      4 C4          5.4089    0.7264    1.5752 C.ar    1  LIG1        0.0000
      5 C5          4.0178    0.7180    1.5096 C.ar    1  LIG1        0.0000
      6 F6          3.4925   -0.3860    0.9950 F       1  LIG1        0.0000
      7 C7          3.2542    1.8046    1.9472 C.ar    1  LIG1        0.0000
      8 C8          3.9548    2.8878    2.4843 C.ar    1  LIG1        0.0000
      9 C9          3.2029    4.0934    3.0300 C.3     1  LIG1        0.0000
     10 C10         1.7797    4.2127    2.5031 C.3     1  LIG1        0.0000
     11 C11         1.1001    2.8559    2.6214 C.3     1  LIG1        0.0000
     12 N12         1.8488    1.8488    1.8488 N.pl3   1  LIG1        0.0000
     13 C13         1.0000    1.0000    1.0000 C.3     1  LIG1        0.0000
     14 N14         0.6200    1.7432   -0.2136 N.pl3   1  LIG1        0.0000
     15 C15        -0.6045    1.7285   -0.8191 C.2     1  LIG1        0.0000
     16 N16        -0.5301    2.5191   -1.8684 N.2     1  LIG1        0.0000
     17 N17         0.6987    3.0124   -1.9398 N.2     1  LIG1        0.0000
     18 C18         1.4290    2.5596   -0.9473 C.2     1  LIG1        0.0000
     19 H           7.0775    1.8425    2.1330 H       1  LIG1        0.0000
     20 H           5.9278   -0.0647    1.2513 H       1  LIG1        0.0000
     21 H           3.7045    4.9204    2.7762 H       1  LIG1        0.0000
     22 H           3.1660    4.0185    4.0265 H       1  LIG1        0.0000
     23 H           1.2770    4.8889    3.0417 H       1  LIG1        0.0000
     24 H           1.7985    4.4972    1.5446 H       1  LIG1        0.0000
     25 H           1.0720    2.5822    3.5828 H       1  LIG1        0.0000
     26 H           0.1677    2.9203    2.2657 H       1  LIG1        0.0000
     27 H           0.1761    0.7420    1.5046 H       1  LIG1        0.0000
     28 H           1.5046    0.1761    0.7420 H       1  LIG1        0.0000
     29 H          -1.4077    1.2130   -0.5206 H       1  LIG1        0.0000
     30 H           2.3891    2.7716   -0.7652 H       1  LIG1        0.0000
@<TRIPOS>BOND
     1     1     2    1
     2     2     3   ar
     3     3     4   ar
     4     4     5   ar
     5     5     6    1
     6     5     7   ar
     7     7     8   ar
     8     8     2   ar
     9     8     9    1
    10     9    10    1
    11    10    11    1
    12    11    12    1
    13    12     7    1
    14    12    13    1
    15    13    14    1
    16    14    15    1
    17    15    16    2
    18    16    17    1
    19    17    18    2
    20    18    14    1
    21     3    19    1
    22     4    20    1
    23     9    21    1
    24     9    22    1
    25    10    23    1
    26    10    24    1
    27    11    25    1
    28    11    26    1
    29    13    27    1
    30    13    28    1
    31    15    29    1
    32    18    30    1
