@<TRIPOS>MOLECULE
*****
 30 32 0 0 0
SMALL
USER_CHARGES

@<TRIPOS>ATOM
      1 F1          2.5856    3.2904    6.3403 F       1  LIG1        0.0000
      2 C2          1.8088    3.2415    5.2613 C.ar    1  LIG1        0.0000
      3 C3          0.5692    3.8705    5.3054 C.ar    1  LIG1        0.0000
      4 C4         -0.2745    3.8563    4.2001 C.ar    1  LIG1        0.0000
      5 C5          0.1389    3.1941    3.0479 C.ar    1  LIG1        0.0000
      6 F6         -0.7212    3.2146    2.0324 F       1  LIG1        0.0000
      7 C7          1.3776    2.5492    2.9739 C.ar    1  LIG1        0.0000
      8 C8          2.2069    2.6049    4.0908 C.ar    1  LIG1        0.0000
      9 C9          3.5709    1.9397    3.9906 C.3     1  LIG1        0.0000
     10 C10         4.1683    2.3381    2.6457 C.3     1  LIG1        0.0000
     11 C11         3.2693    1.9796    1.4691 C.3     1  LIG1        0.0000
     12 N12         1.8499    1.8499    1.8499 N.pl3   1  LIG1        0.0000
     13 C13         1.0000    1.0000    1.0000 C.3     1  LIG1        0.0000
     14 N14         0.6200    1.7432   -0.2136 N.pl3   1  LIG1        0.0000
     15 C15         0.2754    3.0636   -0.2771 C.2     1  LIG1        0.0000
     16 N16         0.0060    3.3362   -1.5358 N.2     1  LIG1        0.0000
     17 N17         0.1601    2.2298   -2.2504 N.2     1  LIG1        0.0000
     18 C18         0.5329    1.2369   -1.4767 C.2     1  LIG1        0.0000
     19 H           0.2815    4.3382    6.1412 H       1  LIG1        0.0000
     20 H          -1.1630    4.3140    4.2326 H       1  LIG1        0.0000
     21 H           3.4721    0.9459    4.0408 H       1  LIG1        0.0000
     22 H           4.1610    2.2540    4.7343 H       1  LIG1        0.0000
     23 H           4.3182    3.3268    2.6433 H       1  LIG1        0.0000
     24 H           5.0437    1.8679    2.5334 H       1  LIG1        0.0000
     25 H           3.3496    2.6962    0.7763 H       1  LIG1        0.0000
     26 H           3.5776    1.1090    1.0856 H       1  LIG1        0.0000
     27 H           0.1761    0.7420    1.5046 H       1  LIG1        0.0000
     28 H           1.5046    0.1761    0.7420 H       1  LIG1        0.0000
     29 H           0.2354    3.7037    0.4902 H       1  LIG1        0.0000
     30 H           0.7167    0.2951   -1.7581 H       1  LIG1        0.0000
@<TRIPOS>BOND
     1     1     2    1
     2     2     3   ar
     3     3     4   ar
     4     4     5   ar
     5     5     6    1
     6     5     7   ar
     7     7     8   ar
     8     8     2   ar
     9     8     9    1
    10     9    10    1
    11    10    11    1
    12    11    12    1
    13    12     7    1
    14    12    13    1
    15    13    14    1
    16    14    15    1
    17    15    16    2
    18    16    17    1
    19    17    18    2
    20    18    14    1
    21     3    19    1
    22     4    20    1
    23     9    21    1
    24     9    22    1
    25    10    23    1
    26    10    24    1
    27    11    25    1
    28    11    26    1
    29    13    27    1
    30    13    28    1
    31    15    29    1
    32    18    30    1
