@<TRIPOS>MOLECULE
*****
 30 32 0 0 0
SMALL
USER_CHARGES

@<TRIPOS>ATOM
      1 F1          5.2808    5.1458    2.5800 F       1  LIG1        0.0000
      2 C2          4.7939    4.1179    1.8922 C.ar    1  LIG1        0.0000
      3 C3          5.5322    3.6628    0.8041 C.ar    1  LIG1        0.0000
      4 C4          5.0598    2.5805    0.0703 C.ar    1  LIG1        0.0000
      5 C5          3.8586    1.9679    0.4189 C.ar    1  LIG1        0.0000
      6 F6          3.5078    0.9510   -0.3573 F       1  LIG1        0.0000
      7 C7          3.0921    2.4138    1.5000 C.ar    1  LIG1        0.0000
      8 C8          3.6071    3.4853    2.2345 C.ar    1  LIG1        0.0000
      9 C9          2.8643    4.0052    3.4569 C.3     1  LIG1        0.0000
     10 C10         1.3913    3.6212    3.4829 C.3     1  LIG1        0.0000
     11 C11         1.2686    2.1361    3.1727 C.3     1  LIG1        0.0000
     12 N12         1.8488    1.8488    1.8488 N.pl3   1  LIG1        0.0000
     13 C13         1.0000    1.0000    1.0000 C.3     1  LIG1        0.0000
     14 N14         0.6200    1.7432   -0.2136 N.pl3   1  LIG1        0.0000
     15 C15         0.2754    3.0636   -0.2771 C.2     1  LIG1        0.0000
     16 N16         0.0060    3.3362   -1.5358 N.2     1  LIG1        0.0000
     17 N17         0.1601    2.2298   -2.2504 N.2     1  LIG1        0.0000
     18 C18         0.5329    1.2369   -1.4767 C.2     1  LIG1        0.0000
     19 H           6.3915    4.1084    0.5532 H       1  LIG1        0.0000
     20 H           5.5842    2.2408   -0.7105 H       1  LIG1        0.0000
     21 H           2.9312    5.0029    3.4671 H       1  LIG1        0.0000
     22 H           3.3026    3.6333    4.2752 H       1  LIG1        0.0000
     23 H           1.0108    3.8083    4.3885 H       1  LIG1        0.0000
     24 H           0.8934    4.1507    2.7961 H       1  LIG1        0.0000
     25 H           1.7569    1.6107    3.8694 H       1  LIG1        0.0000
     26 H           0.3031    1.8760    3.1747 H       1  LIG1        0.0000
     27 H           0.1761    0.7420    1.5046 H       1  LIG1        0.0000
     28 H           1.5046    0.1761    0.7420 H       1  LIG1        0.0000
     29 H           0.2354    3.7037    0.4902 H       1  LIG1        0.0000
     30 H           0.7167    0.2951   -1.7581 H       1  LIG1        0.0000
@<TRIPOS>BOND
     1     1     2    1
     2     2     3   ar
     3     3     4   ar
     4     4     5   ar
     5     5     6    1
     6     5     7   ar
     7     7     8   ar
     8     8     2   ar
     9     8     9    1
    10     9    10    1
    11    10    11    1
    12    11    12    1
    13    12     7    1
    14    12    13    1
    15    13    14    1
    16    14    15    1
    17    15    16    2
    18    16    17    1
    19    17    18    2
    20    18    14    1
    21     3    19    1
    22     4    20    1
    23     9    21    1
    24     9    22    1
    25    10    23    1
    26    10    24    1
    27    11    25    1
    28    11    26    1
    29    13    27    1
    30    13    28    1
    31    15    29    1
    32    18    30    1
