@<TRIPOS>MOLECULE
*****
 30 32 0 0 0
SMALL
USER_CHARGES

@<TRIPOS>ATOM
      1 F1          2.3382    6.2007    3.7232 F       1  LIG1        0.0000
      2 C2          1.6533    5.0655    3.6111 C.ar    1  LIG1        0.0000
      3 C3          0.4805    4.9451    4.3487 C.ar    1  LIG1        0.0000
      4 C4         -0.2671    3.7748    4.2728 C.ar    1  LIG1        0.0000
      5 C5          0.1728    2.7414    3.4546 C.ar    1  LIG1        0.0000
      6 F6         -0.5931    1.6535    3.4234 F       1  LIG1        0.0000
      7 C7          1.3533    2.8537    2.7061 C.ar    1  LIG1        0.0000
      8 C8          2.0987    4.0239    2.8001 C.ar    1  LIG1        0.0000
      9 C9          3.4007    4.1405    2.0192 C.3     1  LIG1        0.0000
     10 C10         4.1519    2.8195    2.1143 C.3     1  LIG1        0.0000
     11 C11         3.3000    1.5962    1.7954 C.3     1  LIG1        0.0000
     12 N12         1.8506    1.8506    1.8506 N.pl3   1  LIG1        0.0000
     13 C13         1.0000    1.0000    1.0000 C.3     1  LIG1        0.0000
     14 N14         0.6200    1.7432   -0.2136 N.pl3   1  LIG1        0.0000
     15 C15        -0.4848    2.5325   -0.3643 C.2     1  LIG1        0.0000
     16 N16        -0.4581    3.0106   -1.5899 N.2     1  LIG1        0.0000
     17 N17         0.6163    2.5363   -2.2055 N.2     1  LIG1        0.0000
     18 C18         1.2973    1.7580   -1.3969 C.2     1  LIG1        0.0000
     19 H           0.1755    5.6979    4.9320 H       1  LIG1        0.0000
     20 H          -1.1109    3.6783    4.8007 H       1  LIG1        0.0000
     21 H           3.9601    4.8735    2.4064 H       1  LIG1        0.0000
     22 H           3.2005    4.3447    1.0610 H       1  LIG1        0.0000
     23 H           4.9169    2.8461    1.4709 H       1  LIG1        0.0000
     24 H           4.5028    2.7239    3.0458 H       1  LIG1        0.0000
     25 H           3.5303    1.2830    0.8741 H       1  LIG1        0.0000
     26 H           3.5195    0.8782    2.4560 H       1  LIG1        0.0000
     27 H           0.1761    0.7420    1.5046 H       1  LIG1        0.0000
     28 H           1.5046    0.1761    0.7420 H       1  LIG1        0.0000
     29 H          -1.1835    2.7132    0.3279 H       1  LIG1        0.0000
     30 H           2.1455    1.2718   -1.6073 H       1  LIG1        0.0000
@<TRIPOS>BOND
     1     1     2    1
     2     2     3   ar
     3     3     4   ar
     4     4     5   ar
     5     5     6    1
     6     5     7   ar
     7     7     8   ar
     8     8     2   ar
     9     8     9    1
    10     9    10    1
    11    10    11    1
    12    11    12    1
    13    12     7    1
    14    12    13    1
    15    13    14    1
    16    14    15    1
    17    15    16    2
    18    16    17    1
    19    17    18    2
    20    18    14    1
    21     3    19    1
    22     4    20    1
    23     9    21    1
    24     9    22    1
    25    10    23    1
    26    10    24    1
    27    11    25    1
    28    11    26    1
    29    13    27    1
    30    13    28    1
    31    15    29    1
    32    18    30    1
