@<TRIPOS>MOLECULE
*****
 30 32 0 0 0
SMALL
USER_CHARGES

@<TRIPOS>ATOM
      1 F1          4.0588    6.0583    2.1450 F       1  LIG1        0.0000
      2 C2          2.9360    5.3519    2.0420 C.ar    1  LIG1        0.0000
      3 C3          1.7364    6.0533    1.9845 C.ar    1  LIG1        0.0000
      4 C4          0.5345    5.3608    1.8853 C.ar    1  LIG1        0.0000
      5 C5          0.5539    3.9719    1.8428 C.ar    1  LIG1        0.0000
      6 F6         -0.6301    3.3731    1.7408 F       1  LIG1        0.0000
      7 C7          1.7583    3.2558    1.8990 C.ar    1  LIG1        0.0000
      8 C8          2.9527    3.9592    2.0109 C.ar    1  LIG1        0.0000
      9 C9          4.2625    3.1888    2.1091 C.3     1  LIG1        0.0000
     10 C10         4.0625    1.9930    3.0301 C.3     1  LIG1        0.0000
     11 C11         2.8298    1.1573    2.7044 C.3     1  LIG1        0.0000
     12 N12         1.8506    1.8506    1.8506 N.pl3   1  LIG1        0.0000
     13 C13         1.0000    1.0000    1.0000 C.3     1  LIG1        0.0000
     14 N14         0.6200    1.7432   -0.2136 N.pl3   1  LIG1        0.0000
     15 C15        -0.6045    1.7285   -0.8191 C.2     1  LIG1        0.0000
     16 N16        -0.5301    2.5191   -1.8684 N.2     1  LIG1        0.0000
     17 N17         0.6987    3.0124   -1.9398 N.2     1  LIG1        0.0000
     18 C18         1.4290    2.5596   -0.9473 C.2     1  LIG1        0.0000
     19 H           1.7382    7.0528    2.0145 H       1  LIG1        0.0000
     20 H          -0.3332    5.8562    1.8450 H       1  LIG1        0.0000
     21 H           4.9749    3.7838    2.4812 H       1  LIG1        0.0000
     22 H           4.5343    2.8713    1.2007 H       1  LIG1        0.0000
     23 H           4.8682    1.4048    2.9608 H       1  LIG1        0.0000
     24 H           3.9752    2.3296    3.9677 H       1  LIG1        0.0000
     25 H           3.1273    0.3271    2.2329 H       1  LIG1        0.0000
     26 H           2.3805    0.9103    3.5629 H       1  LIG1        0.0000
     27 H           0.1761    0.7420    1.5046 H       1  LIG1        0.0000
     28 H           1.5046    0.1761    0.7420 H       1  LIG1        0.0000
     29 H          -1.4077    1.2130   -0.5206 H       1  LIG1        0.0000
     30 H           2.3891    2.7716   -0.7652 H       1  LIG1        0.0000
@<TRIPOS>BOND
     1     1     2    1
     2     2     3   ar
     3     3     4   ar
     4     4     5   ar
     5     5     6    1
     6     5     7   ar
     7     7     8   ar
     8     8     2   ar
     9     8     9    1
    10     9    10    1
    11    10    11    1
    12    11    12    1
    13    12     7    1
    14    12    13    1
    15    13    14    1
    16    14    15    1
    17    15    16    2
    18    16    17    1
    19    17    18    2
    20    18    14    1
    21     3    19    1
    22     4    20    1
    23     9    21    1
    24     9    22    1
    25    10    23    1
    26    10    24    1
    27    11    25    1
    28    11    26    1
    29    13    27    1
    30    13    28    1
    31    15    29    1
    32    18    30    1
