@<TRIPOS>MOLECULE
*****
 30 32 0 0 0
SMALL
USER_CHARGES

@<TRIPOS>ATOM
      1 F1          5.5481    1.8015    4.8667 F       1  LIG1        0.0000
      2 C2          4.3028    1.4402    4.5685 C.ar    1  LIG1        0.0000
      3 C3          3.5990    0.6635    5.4827 C.ar    1  LIG1        0.0000
      4 C4          2.2914    0.2690    5.2216 C.ar    1  LIG1        0.0000
      5 C5          1.6986    0.6583    4.0241 C.ar    1  LIG1        0.0000
      6 F6          0.4492    0.2392    3.8374 F       1  LIG1        0.0000
      7 C7          2.3815    1.4358    3.0833 C.ar    1  LIG1        0.0000
      8 C8          3.6803    1.8334    3.3889 C.ar    1  LIG1        0.0000
      9 C9          4.4033    2.7153    2.3826 C.3     1  LIG1        0.0000
     10 C10         3.4197    3.7927    1.9398 C.3     1  LIG1        0.0000
     11 C11         2.1280    3.2178    1.3723 C.3     1  LIG1        0.0000
     12 N12         1.8499    1.8499    1.8499 N.pl3   1  LIG1        0.0000
     13 C13         1.0000    1.0000    1.0000 C.3     1  LIG1        0.0000
     14 N14         0.6200    1.7432   -0.2136 N.pl3   1  LIG1        0.0000
     15 C15        -0.4848    2.5325   -0.3643 C.2     1  LIG1        0.0000
     16 N16        -0.4581    3.0106   -1.5899 N.2     1  LIG1        0.0000
     17 N17         0.6163    2.5363   -2.2055 N.2     1  LIG1        0.0000
     18 C18         1.2973    1.7580   -1.3969 C.2     1  LIG1        0.0000
     19 H           4.0381    0.3857    6.3371 H       1  LIG1        0.0000
     20 H           1.7856   -0.2849    5.8829 H       1  LIG1        0.0000
     21 H           4.6926    2.1709    1.5953 H       1  LIG1        0.0000
     22 H           5.2039    3.1365    2.8089 H       1  LIG1        0.0000
     23 H           3.1951    4.3639    2.7292 H       1  LIG1        0.0000
     24 H           3.8559    4.3533    1.2359 H       1  LIG1        0.0000
     25 H           1.3692    3.8105    1.6424 H       1  LIG1        0.0000
     26 H           2.1979    3.1994    0.3749 H       1  LIG1        0.0000
     27 H           0.1761    0.7420    1.5046 H       1  LIG1        0.0000
     28 H           1.5046    0.1761    0.7420 H       1  LIG1        0.0000
     29 H          -1.1835    2.7132    0.3279 H       1  LIG1        0.0000
     30 H           2.1455    1.2718   -1.6073 H       1  LIG1        0.0000
@<TRIPOS>BOND
     1     1     2    1
     2     2     3   ar
     3     3     4   ar
     4     4     5   ar
     5     5     6    1
     6     5     7   ar
     7     7     8   ar
     8     8     2   ar
     9     8     9    1
    10     9    10    1
    11    10    11    1
    12    11    12    1
    13    12     7    1
    14    12    13    1
    15    13    14    1
    16    14    15    1
    17    15    16    2
    18    16    17    1
    19    17    18    2
    20    18    14    1
    21     3    19    1
    22     4    20    1
    23     9    21    1
    24     9    22    1
    25    10    23    1
    26    10    24    1
    27    11    25    1
    28    11    26    1
    29    13    27    1
    30    13    28    1
    31    15    29    1
    32    18    30    1
