@<TRIPOS>MOLECULE
*****
 30 32 0 0 0
SMALL
USER_CHARGES

@<TRIPOS>ATOM
      1 F1          2.0730    4.0789    6.0644 F       1  LIG1        0.0000
      2 C2          1.5082    3.9350    4.8684 C.ar    1  LIG1        0.0000
      3 C3          0.4474    4.7683    4.5295 C.ar    1  LIG1        0.0000
      4 C4         -0.1694    4.6637    3.2876 C.ar    1  LIG1        0.0000
      5 C5          0.2876    3.7042    2.3891 C.ar    1  LIG1        0.0000
      6 F6         -0.3533    3.6555    1.2236 F       1  LIG1        0.0000
      7 C7          1.3494    2.8494    2.7019 C.ar    1  LIG1        0.0000
      8 C8          1.9593    2.9988    3.9445 C.ar    1  LIG1        0.0000
      9 C9          3.1416    2.0966    4.2630 C.3     1  LIG1        0.0000
     10 C10         4.0401    2.0804    3.0315 C.3     1  LIG1        0.0000
     11 C11         3.3080    1.6398    1.7703 C.3     1  LIG1        0.0000
     12 N12         1.8499    1.8499    1.8499 N.pl3   1  LIG1        0.0000
     13 C13         1.0000    1.0000    1.0000 C.3     1  LIG1        0.0000
     14 N14         0.6200    1.7432   -0.2136 N.pl3   1  LIG1        0.0000
     15 C15        -0.6045    1.7285   -0.8191 C.2     1  LIG1        0.0000
     16 N16        -0.5301    2.5191   -1.8684 N.2     1  LIG1        0.0000
     17 N17         0.6987    3.0124   -1.9398 N.2     1  LIG1        0.0000
     18 C18         1.4290    2.5596   -0.9473 C.2     1  LIG1        0.0000
     19 H           0.1248    5.4500    5.1861 H       1  LIG1        0.0000
     20 H          -0.9283    5.2677    3.0443 H       1  LIG1        0.0000
     21 H           2.8216    1.1712    4.4660 H       1  LIG1        0.0000
     22 H           3.6444    2.4554    5.0495 H       1  LIG1        0.0000
     23 H           4.3996    3.0022    2.8865 H       1  LIG1        0.0000
     24 H           4.7980    1.4495    3.1976 H       1  LIG1        0.0000
     25 H           3.6639    2.1626    0.9956 H       1  LIG1        0.0000
     26 H           3.4825    0.6661    1.6237 H       1  LIG1        0.0000
     27 H           0.1761    0.7420    1.5046 H       1  LIG1        0.0000
     28 H           1.5046    0.1761    0.7420 H       1  LIG1        0.0000
     29 H          -1.4077    1.2130   -0.5206 H       1  LIG1        0.0000
     30 H           2.3891    2.7716   -0.7652 H       1  LIG1        0.0000
@<TRIPOS>BOND
     1     1     2    1
     2     2     3   ar
     3     3     4   ar
     4     4     5   ar
     5     5     6    1
     6     5     7   ar
     7     7     8   ar
     8     8     2   ar
     9     8     9    1
    10     9    10    1
    11    10    11    1
    12    11    12    1
    13    12     7    1
    14    12    13    1
    15    13    14    1
    16    14    15    1
    17    15    16    2
    18    16    17    1
    19    17    18    2
    20    18    14    1
    21     3    19    1
    22     4    20    1
    23     9    21    1
    24     9    22    1
    25    10    23    1
    26    10    24    1
    27    11    25    1
    28    11    26    1
    29    13    27    1
    30    13    28    1
    31    15    29    1
    32    18    30    1
