@<TRIPOS>MOLECULE
*****
 30 32 0 0 0
SMALL
USER_CHARGES

@<TRIPOS>ATOM
      1 F1          6.2202    2.3750    3.6669 F       1  LIG1        0.0000
      2 C2          5.4125    2.3055    2.6118 C.ar    1  LIG1        0.0000
      3 C3          5.9859    2.4367    1.3516 C.ar    1  LIG1        0.0000
      4 C4          5.1833    2.3799    0.2174 C.ar    1  LIG1        0.0000
      5 C5          3.8146    2.1898    0.3643 C.ar    1  LIG1        0.0000
      6 F6          3.1068    2.1384   -0.7615 F       1  LIG1        0.0000
      7 C7          3.2272    2.0553    1.6305 C.ar    1  LIG1        0.0000
      8 C8          4.0386    2.1264    2.7577 C.ar    1  LIG1        0.0000
      9 C9          3.4047    2.0178    4.1379 C.3     1  LIG1        0.0000
     10 C10         2.1122    2.8226    4.1508 C.3     1  LIG1        0.0000
     11 C11         1.1862    2.5295    2.9758 C.3     1  LIG1        0.0000
     12 N12         1.8506    1.8506    1.8506 N.pl3   1  LIG1        0.0000
     13 C13         1.0000    1.0000    1.0000 C.3     1  LIG1        0.0000
     14 N14         0.6200    1.7432   -0.2136 N.pl3   1  LIG1        0.0000
     15 C15         0.2754    3.0636   -0.2771 C.2     1  LIG1        0.0000
     16 N16         0.0060    3.3362   -1.5358 N.2     1  LIG1        0.0000
     17 N17         0.1601    2.2298   -2.2504 N.2     1  LIG1        0.0000
     18 C18         0.5329    1.2369   -1.4767 C.2     1  LIG1        0.0000
     19 H           6.9727    2.5714    1.2613 H       1  LIG1        0.0000
     20 H           5.5862    2.4748   -0.6930 H       1  LIG1        0.0000
     21 H           4.0333    2.3810    4.8257 H       1  LIG1        0.0000
     22 H           3.2054    1.0593    4.3415 H       1  LIG1        0.0000
     23 H           1.6214    2.6154    4.9970 H       1  LIG1        0.0000
     24 H           2.3470    3.7945    4.1310 H       1  LIG1        0.0000
     25 H           0.4406    1.9471    3.2997 H       1  LIG1        0.0000
     26 H           0.8126    3.3961    2.6450 H       1  LIG1        0.0000
     27 H           0.1761    0.7420    1.5046 H       1  LIG1        0.0000
     28 H           1.5046    0.1761    0.7420 H       1  LIG1        0.0000
     29 H           0.2354    3.7037    0.4902 H       1  LIG1        0.0000
     30 H           0.7167    0.2951   -1.7581 H       1  LIG1        0.0000
@<TRIPOS>BOND
     1     1     2    1
     2     2     3   ar
     3     3     4   ar
     4     4     5   ar
     5     5     6    1
     6     5     7   ar
     7     7     8   ar
     8     8     2   ar
     9     8     9    1
    10     9    10    1
    11    10    11    1
    12    11    12    1
    13    12     7    1
    14    12    13    1
    15    13    14    1
    16    14    15    1
    17    15    16    2
    18    16    17    1
    19    17    18    2
    20    18    14    1
    21     3    19    1
    22     4    20    1
    23     9    21    1
    24     9    22    1
    25    10    23    1
    26    10    24    1
    27    11    25    1
    28    11    26    1
    29    13    27    1
    30    13    28    1
    31    15    29    1
    32    18    30    1
