@<TRIPOS>MOLECULE
*****
 30 32 0 0 0
SMALL
USER_CHARGES

@<TRIPOS>ATOM
      1 F1          2.9824    2.9329    6.3467 F       1  LIG1        0.0000
      2 C2          2.9272    2.0485    5.3542 C.ar    1  LIG1        0.0000
      3 C3          3.4013    0.7657    5.6072 C.ar    1  LIG1        0.0000
      4 C4          3.3734   -0.1929    4.6001 C.ar    1  LIG1        0.0000
      5 C5          2.8670    0.1495    3.3521 C.ar    1  LIG1        0.0000
      6 F6          2.8634   -0.8166    2.4370 F       1  LIG1        0.0000
      7 C7          2.3856    1.4398    3.0877 C.ar    1  LIG1        0.0000
      8 C8          2.4305    2.3932    4.0991 C.ar    1  LIG1        0.0000
      9 C9          1.9436    3.8067    3.8102 C.3     1  LIG1        0.0000
     10 C10         2.4325    4.2234    2.4298 C.3     1  LIG1        0.0000
     11 C11         2.1581    3.1961    1.3373 C.3     1  LIG1        0.0000
     12 N12         1.8506    1.8506    1.8506 N.pl3   1  LIG1        0.0000
     13 C13         1.0000    1.0000    1.0000 C.3     1  LIG1        0.0000
     14 N14         0.6200    1.7432   -0.2136 N.pl3   1  LIG1        0.0000
     15 C15        -0.4848    2.5325   -0.3643 C.2     1  LIG1        0.0000
     16 N16        -0.4581    3.0106   -1.5899 N.2     1  LIG1        0.0000
     17 N17         0.6163    2.5363   -2.2055 N.2     1  LIG1        0.0000
     18 C18         1.2973    1.7580   -1.3969 C.2     1  LIG1        0.0000
     19 H           3.7613    0.5334    6.5107 H       1  LIG1        0.0000
     20 H           3.7136   -1.1174    4.7719 H       1  LIG1        0.0000
     21 H           2.3069    4.4343    4.4987 H       1  LIG1        0.0000
     22 H           0.9441    3.8289    3.8333 H       1  LIG1        0.0000
     23 H           1.9767    5.0776    2.1796 H       1  LIG1        0.0000
     24 H           3.4199    4.3742    2.4784 H       1  LIG1        0.0000
     25 H           1.3794    3.5125    0.7955 H       1  LIG1        0.0000
     26 H           2.9673    3.1334    0.7531 H       1  LIG1        0.0000
     27 H           0.1761    0.7420    1.5046 H       1  LIG1        0.0000
     28 H           1.5046    0.1761    0.7420 H       1  LIG1        0.0000
     29 H          -1.1835    2.7132    0.3279 H       1  LIG1        0.0000
     30 H           2.1455    1.2718   -1.6073 H       1  LIG1        0.0000
@<TRIPOS>BOND
     1     1     2    1
     2     2     3   ar
     3     3     4   ar
     4     4     5   ar
     5     5     6    1
     6     5     7   ar
     7     7     8   ar
     8     8     2   ar
     9     8     9    1
    10     9    10    1
    11    10    11    1
    12    11    12    1
    13    12     7    1
    14    12    13    1
    15    13    14    1
    16    14    15    1
    17    15    16    2
    18    16    17    1
    19    17    18    2
    20    18    14    1
    21     3    19    1
    22     4    20    1
    23     9    21    1
    24     9    22    1
    25    10    23    1
    26    10    24    1
    27    11    25    1
    28    11    26    1
    29    13    27    1
    30    13    28    1
    31    15    29    1
    32    18    30    1
