@<TRIPOS>MOLECULE
*****
 30 32 0 0 0
SMALL
USER_CHARGES

@<TRIPOS>ATOM
      1 F1          5.8365    1.9740    4.4515 F       1  LIG1        0.0000
      2 C2          5.2332    1.8211    3.2755 C.ar    1  LIG1        0.0000
      3 C3          6.0357    1.5711    2.1675 C.ar    1  LIG1        0.0000
      4 C4          5.4541    1.4122    0.9142 C.ar    1  LIG1        0.0000
      5 C5          4.0730    1.5044    0.7912 C.ar    1  LIG1        0.0000
      6 F6          3.5822    1.3357   -0.4342 F       1  LIG1        0.0000
      7 C7          3.2554    1.7550    1.9026 C.ar    1  LIG1        0.0000
      8 C8          3.8498    1.9246    3.1484 C.ar    1  LIG1        0.0000
      9 C9          2.9729    2.2331    4.3544 C.3     1  LIG1        0.0000
     10 C10         1.9052    3.2376    3.9428 C.3     1  LIG1        0.0000
     11 C11         1.1610    2.8649    2.6656 C.3     1  LIG1        0.0000
     12 N12         1.8506    1.8506    1.8506 N.pl3   1  LIG1        0.0000
     13 C13         1.0000    1.0000    1.0000 C.3     1  LIG1        0.0000
     14 N14         0.6200    1.7432   -0.2136 N.pl3   1  LIG1        0.0000
     15 C15        -0.6045    1.7285   -0.8191 C.2     1  LIG1        0.0000
     16 N16        -0.5301    2.5191   -1.8684 N.2     1  LIG1        0.0000
     17 N17         0.6987    3.0124   -1.9398 N.2     1  LIG1        0.0000
     18 C18         1.4290    2.5596   -0.9473 C.2     1  LIG1        0.0000
     19 H           7.0281    1.5057    2.2716 H       1  LIG1        0.0000
     20 H           6.0229    1.2337    0.1113 H       1  LIG1        0.0000
     21 H           3.5332    2.6198    5.0869 H       1  LIG1        0.0000
     22 H           2.5370    1.3927    4.6765 H       1  LIG1        0.0000
     23 H           1.2390    3.3099    4.6850 H       1  LIG1        0.0000
     24 H           2.3455    4.1244    3.8026 H       1  LIG1        0.0000
     25 H           0.2613    2.5086    2.9175 H       1  LIG1        0.0000
     26 H           1.0497    3.6909    2.1131 H       1  LIG1        0.0000
     27 H           0.1761    0.7420    1.5046 H       1  LIG1        0.0000
     28 H           1.5046    0.1761    0.7420 H       1  LIG1        0.0000
     29 H          -1.4077    1.2130   -0.5206 H       1  LIG1        0.0000
     30 H           2.3891    2.7716   -0.7652 H       1  LIG1        0.0000
@<TRIPOS>BOND
     1     1     2    1
     2     2     3   ar
     3     3     4   ar
     4     4     5   ar
     5     5     6    1
     6     5     7   ar
     7     7     8   ar
     8     8     2   ar
     9     8     9    1
    10     9    10    1
    11    10    11    1
    12    11    12    1
    13    12     7    1
    14    12    13    1
    15    13    14    1
    16    14    15    1
    17    15    16    2
    18    16    17    1
    19    17    18    2
    20    18    14    1
    21     3    19    1
    22     4    20    1
    23     9    21    1
    24     9    22    1
    25    10    23    1
    26    10    24    1
    27    11    25    1
    28    11    26    1
    29    13    27    1
    30    13    28    1
    31    15    29    1
    32    18    30    1
