@<TRIPOS>MOLECULE
*****
 30 32 0 0 0
SMALL
USER_CHARGES

@<TRIPOS>ATOM
      1 F1          5.5586    4.8538    1.8039 F       1  LIG1        0.0000
      2 C2          5.0656    3.6329    1.6131 C.ar    1  LIG1        0.0000
      3 C3          5.9276    2.6262    1.1914 C.ar    1  LIG1        0.0000
      4 C4          5.4624    1.3317    0.9878 C.ar    1  LIG1        0.0000
      5 C5          4.1151    1.0598    1.2060 C.ar    1  LIG1        0.0000
      6 F6          3.7384   -0.1974    0.9848 F       1  LIG1        0.0000
      7 C7          3.2228    2.0512    1.6265 C.ar    1  LIG1        0.0000
      8 C8          3.7282    3.3301    1.8442 C.ar    1  LIG1        0.0000
      9 C9          2.7632    4.3945    2.3436 C.3     1  LIG1        0.0000
     10 C10         1.9331    3.7633    3.4557 C.3     1  LIG1        0.0000
     11 C11         1.2094    2.4991    3.0095 C.3     1  LIG1        0.0000
     12 N12         1.8499    1.8499    1.8499 N.pl3   1  LIG1        0.0000
     13 C13         1.0000    1.0000    1.0000 C.3     1  LIG1        0.0000
     14 N14         0.6200    1.7432   -0.2136 N.pl3   1  LIG1        0.0000
     15 C15        -0.4848    2.5325   -0.3643 C.2     1  LIG1        0.0000
     16 N16        -0.4581    3.0106   -1.5899 N.2     1  LIG1        0.0000
     17 N17         0.6163    2.5363   -2.2055 N.2     1  LIG1        0.0000
     18 C18         1.2973    1.7580   -1.3969 C.2     1  LIG1        0.0000
     19 H           6.8924    2.8357    1.0327 H       1  LIG1        0.0000
     20 H           6.0854    0.6085    0.6898 H       1  LIG1        0.0000
     21 H           2.1671    4.6933    1.5984 H       1  LIG1        0.0000
     22 H           3.2719    5.1788    2.6986 H       1  LIG1        0.0000
     23 H           2.5407    3.5321    4.2155 H       1  LIG1        0.0000
     24 H           1.2530    4.4288    3.7633 H       1  LIG1        0.0000
     25 H           1.1984    1.8519    3.7718 H       1  LIG1        0.0000
     26 H           0.2706    2.7391    2.7626 H       1  LIG1        0.0000
     27 H           0.1761    0.7420    1.5046 H       1  LIG1        0.0000
     28 H           1.5046    0.1761    0.7420 H       1  LIG1        0.0000
     29 H          -1.1835    2.7132    0.3279 H       1  LIG1        0.0000
     30 H           2.1455    1.2718   -1.6073 H       1  LIG1        0.0000
@<TRIPOS>BOND
     1     1     2    1
     2     2     3   ar
     3     3     4   ar
     4     4     5   ar
     5     5     6    1
     6     5     7   ar
     7     7     8   ar
     8     8     2   ar
     9     8     9    1
    10     9    10    1
    11    10    11    1
    12    11    12    1
    13    12     7    1
    14    12    13    1
    15    13    14    1
    16    14    15    1
    17    15    16    2
    18    16    17    1
    19    17    18    2
    20    18    14    1
    21     3    19    1
    22     4    20    1
    23     9    21    1
    24     9    22    1
    25    10    23    1
    26    10    24    1
    27    11    25    1
    28    11    26    1
    29    13    27    1
    30    13    28    1
    31    15    29    1
    32    18    30    1
