@<TRIPOS>MOLECULE

  62   65
SMALL
USER_CHARGES
@<TRIPOS>ATOM
   1 C1          -6.6892     2.4273     4.6609 C.3          1    LIG   0.0000
   2 C2          -5.2376     2.3782     4.2108 C.ar         1    LIG   0.0000
   3 C3          -4.5480     3.5645     3.9870 C.ar         1    LIG   0.0000
   4 C4          -3.2201     3.5300     3.5740 C.ar         1    LIG   0.0000
   5 C5          -2.5988     2.2992     3.3909 C.ar         1    LIG   0.0000
   6 C6          -1.1477     2.2548     2.9412 C.3          1    LIG   0.0000
   7 C7          -1.0885     2.2293     1.4225 C.3          1    LIG   0.0000
   8 N8           0.3150     2.1864     0.9875 N.am         1    LIG   0.0000
   9 C9           1.0000     1.0000     1.0000 C.2          1    LIG   0.0000
  10 O10          0.4000    -0.0392     1.0109 O.2          1    LIG   0.0000
  11 C11          2.4506     1.0000     1.0000 C.2          1    LIG   0.0000
  12 C12          3.1573    -0.1751     1.0130 C.2          1    LIG   0.0000
  13 N13          4.5284    -0.1783     1.0135 N.pl3        1    LIG   0.0000
  14 C14          5.2469     0.9896     1.0011 C.ar         1    LIG   0.0000
  15 C15          6.6375     0.9361     1.0015 C.ar         1    LIG   0.0000
  16 C16          7.3792     2.1137     0.9890 C.ar         1    LIG   0.0000
  17 C17          6.7302     3.3448     0.9754 C.ar         1    LIG   0.0000
  18 S18          7.5974     4.8529     0.9585 S.o2         1    LIG   0.0000
  19 O19          8.8558     4.6754     0.2815 O.2          1    LIG   0.0000
  20 O20          6.8173     5.8474     0.2685 O.2          1    LIG   0.0000
  21 N21          7.8683     5.3411     2.4898 N.pl3        1    LIG   0.0000
  22 C22          8.7774     4.6456     3.2957 C.ar         1    LIG   0.0000
  23 C23          9.9642     4.1820     2.7384 C.ar         1    LIG   0.0000
  24 C24         10.8601     3.4908     3.5469 C.ar         1    LIG   0.0000
  25 C25         12.1624     2.9778     2.9549 C.3          1    LIG   0.0000
  26 C26         10.5872     3.2605     4.8913 C.ar         1    LIG   0.0000
  27 C27          9.3933     3.7351     5.4237 C.ar         1    LIG   0.0000
  28 C28          9.0768     3.4925     6.8901 C.3          1    LIG   0.0000
  29 C29          8.4797     4.4290     4.6371 C.ar         1    LIG   0.0000
  30 C30          5.3414     3.3815     0.9752 C.ar         1    LIG   0.0000
  31 C31          4.5845     2.2129     0.9879 C.ar         1    LIG   0.0000
  32 C32          3.1615     2.2306     0.9871 C.2          1    LIG   0.0000
  33 O33          2.5228     3.2728     0.9760 O.2          1    LIG   0.0000
  34 C34         -3.2801     1.1068     3.6125 C.ar         1    LIG   0.0000
  35 C35         -4.6074     1.1515     4.0259 C.ar         1    LIG   0.0000
  36 H            5.0153    -1.0517     1.0232 H            1    LIG   0.0000
  37 H           -7.0343     1.4958     4.7756 H            1    LIG   0.0000
  38 H           -6.7520     2.9156     5.5313 H            1    LIG   0.0000
  39 H           -7.2360     2.9028     3.9718 H            1    LIG   0.0000
  40 H           -5.0066     4.4427     4.1230 H            1    LIG   0.0000
  41 H           -2.7184     4.3796     3.4108 H            1    LIG   0.0000
  42 H           -0.7108     1.4324     3.3056 H            1    LIG   0.0000
  43 H           -0.6688     3.0647     3.2799 H            1    LIG   0.0000
  44 H           -1.5674     1.4195     1.0838 H            1    LIG   0.0000
  45 H           -1.5254     3.0517     1.0581 H            1    LIG   0.0000
  46 H            0.7698     3.0231     0.6825 H            1    LIG   0.0000
  47 H            2.6640    -1.0449     1.0222 H            1    LIG   0.0000
  48 H            7.1039     0.0516     1.0109 H            1    LIG   0.0000
  49 H            8.3785     2.0752     0.9898 H            1    LIG   0.0000
  50 H            7.3851     6.1375     2.8537 H            1    LIG   0.0000
  51 H           10.1698     4.3428     1.7730 H            1    LIG   0.0000
  52 H           12.6881     2.5071     3.6635 H            1    LIG   0.0000
  53 H           11.9621     2.3412     2.2102 H            1    LIG   0.0000
  54 H           12.6940     3.7476     2.6015 H            1    LIG   0.0000
  55 H           11.2378     2.7626     5.4647 H            1    LIG   0.0000
  56 H            9.8270     2.9845     7.3133 H            1    LIG   0.0000
  57 H            8.9635     4.3699     7.3563 H            1    LIG   0.0000
  58 H            8.2316     2.9633     6.9655 H            1    LIG   0.0000
  59 H            7.6237     4.7662     5.0292 H            1    LIG   0.0000
  60 H            4.8754     4.2662     0.9656 H            1    LIG   0.0000
  61 H           -2.8215     0.2287     3.4763 H            1    LIG   0.0000
  62 H           -5.1088     0.3021     4.1902 H            1    LIG   0.0000
@<TRIPOS>BOND
   1        1        2 1
   2        2        3 ar
   3        3        4 ar
   4        4        5 ar
   5        5        6 1
   6        6        7 1
   7        7        8 1
   8        8        9 am
   9        9       10 2
  10        9       11 1
  11       11       12 2
  12       12       13 1
  13       13       14 1
  14       14       15 ar
  15       15       16 ar
  16       16       17 ar
  17       17       18 1
  18       18       19 2
  19       18       20 2
  20       18       21 1
  21       21       22 1
  22       22       23 ar
  23       23       24 ar
  24       24       25 1
  25       24       26 ar
  26       26       27 ar
  27       27       28 1
  28       27       29 ar
  29       29       22 ar
  30       17       30 ar
  31       30       31 ar
  32       31       14 ar
  33       31       32 1
  34       32       11 1
  35       32       33 2
  36        5       34 ar
  37       34       35 ar
  38       35        2 ar
  39       13       36 1
  40        1       37 1
  41        1       38 1
  42        1       39 1
  43        3       40 1
  44        4       41 1
  45        6       42 1
  46        6       43 1
  47        7       44 1
  48        7       45 1
  49        8       46 1
  50       12       47 1
  51       15       48 1
  52       16       49 1
  53       21       50 1
  54       23       51 1
  55       25       52 1
  56       25       53 1
  57       25       54 1
  58       26       55 1
  59       28       56 1
  60       28       57 1
  61       28       58 1
  62       29       59 1
  63       30       60 1
  64       34       61 1
  65       35       62 1

@<TRIPOS>MOLECULE

  62   65
SMALL
USER_CHARGES
@<TRIPOS>ATOM
   1 C1          -5.5818     3.8425    -3.8145 C.3          1    LIG   0.0000
   2 C2          -4.4380     3.2282    -3.0229 C.ar         1    LIG   0.0000
   3 C3          -4.5738     3.0440    -1.6515 C.ar         1    LIG   0.0000
   4 C4          -3.5326     2.4838    -0.9184 C.ar         1    LIG   0.0000
   5 C5          -2.3636     2.1137    -1.5750 C.ar         1    LIG   0.0000
   6 C6          -1.2230     1.4999    -0.7800 C.3          1    LIG   0.0000
   7 C7          -1.0885     2.2202     0.5517 C.3          1    LIG   0.0000
   8 N8           0.3150     2.1864     0.9875 N.am         1    LIG   0.0000
   9 C9           1.0000     1.0000     1.0000 C.2          1    LIG   0.0000
  10 O10          0.4000    -0.0392     1.0109 O.2          1    LIG   0.0000
  11 C11          2.4506     1.0000     1.0000 C.2          1    LIG   0.0000
  12 C12          3.1573    -0.1751     1.0130 C.2          1    LIG   0.0000
  13 N13          4.5284    -0.1783     1.0135 N.pl3        1    LIG   0.0000
  14 C14          5.2469     0.9896     1.0011 C.ar         1    LIG   0.0000
  15 C15          6.6375     0.9361     1.0015 C.ar         1    LIG   0.0000
  16 C16          7.3792     2.1137     0.9890 C.ar         1    LIG   0.0000
  17 C17          6.7302     3.3448     0.9754 C.ar         1    LIG   0.0000
  18 S18          7.5974     4.8529     0.9585 S.o2         1    LIG   0.0000
  19 O19          8.8558     4.6754     0.2815 O.2          1    LIG   0.0000
  20 O20          6.8173     5.8474     0.2685 O.2          1    LIG   0.0000
  21 N21          7.8683     5.3411     2.4898 N.pl3        1    LIG   0.0000
  22 C22          8.7774     4.6456     3.2957 C.ar         1    LIG   0.0000
  23 C23         10.1395     4.8832     3.1458 C.ar         1    LIG   0.0000
  24 C24         11.0346     4.1861     3.9501 C.ar         1    LIG   0.0000
  25 C25         12.5266     4.4339     3.8007 C.3          1    LIG   0.0000
  26 C26         10.5895     3.2649     4.8924 C.ar         1    LIG   0.0000
  27 C27          9.2221     3.0463     5.0222 C.ar         1    LIG   0.0000
  28 C28          8.7166     2.0429     6.0454 C.3          1    LIG   0.0000
  29 C29          8.3054     3.7297     4.2302 C.ar         1    LIG   0.0000
  30 C30          5.3414     3.3815     0.9752 C.ar         1    LIG   0.0000
  31 C31          4.5845     2.2129     0.9879 C.ar         1    LIG   0.0000
  32 C32          3.1615     2.2306     0.9871 C.2          1    LIG   0.0000
  33 O33          2.5228     3.2728     0.9760 O.2          1    LIG   0.0000
  34 C34         -2.2184     2.2937    -2.9467 C.ar         1    LIG   0.0000
  35 C35         -3.2652     2.8539    -3.6712 C.ar         1    LIG   0.0000
  36 H            5.0153    -1.0517     1.0232 H            1    LIG   0.0000
  37 H           -5.3242     3.9047    -4.7787 H            1    LIG   0.0000
  38 H           -6.3960     3.2691    -3.7233 H            1    LIG   0.0000
  39 H           -5.7774     4.7577    -3.4620 H            1    LIG   0.0000
  40 H           -5.4199     3.3141    -1.1921 H            1    LIG   0.0000
  41 H           -3.6235     2.3490     0.0682 H            1    LIG   0.0000
  42 H           -0.3709     1.5903    -1.2954 H            1    LIG   0.0000
  43 H           -1.4132     0.5316    -0.6175 H            1    LIG   0.0000
  44 H           -1.3825     3.1704     0.4480 H            1    LIG   0.0000
  45 H           -1.6608     1.7670     1.2352 H            1    LIG   0.0000
  46 H            0.7698     3.0294     1.2749 H            1    LIG   0.0000
  47 H            2.6640    -1.0449     1.0222 H            1    LIG   0.0000
  48 H            7.1039     0.0516     1.0109 H            1    LIG   0.0000
  49 H            8.3785     2.0752     0.9898 H            1    LIG   0.0000
  50 H            7.3851     6.1375     2.8537 H            1    LIG   0.0000
  51 H           10.4695     5.5438     2.4715 H            1    LIG   0.0000
  52 H           13.0265     3.8577     4.4473 H            1    LIG   0.0000
  53 H           12.8097     4.2112     2.8679 H            1    LIG   0.0000
  54 H           12.7252     5.3957     3.9887 H            1    LIG   0.0000
  55 H           11.2409     2.7686     5.4663 H            1    LIG   0.0000
  56 H            9.4934     1.6404     6.5297 H            1    LIG   0.0000
  57 H            8.1196     2.5065     6.7001 H            1    LIG   0.0000
  58 H            8.2040     1.3215     5.5798 H            1    LIG   0.0000
  59 H            7.3241     3.5655     4.3309 H            1    LIG   0.0000
  60 H            4.8754     4.2662     0.9656 H            1    LIG   0.0000
  61 H           -1.3722     2.0237    -3.4060 H            1    LIG   0.0000
  62 H           -3.1748     2.9877    -4.6581 H            1    LIG   0.0000
@<TRIPOS>BOND
   1        1        2 1
   2        2        3 ar
   3        3        4 ar
   4        4        5 ar
   5        5        6 1
   6        6        7 1
   7        7        8 1
   8        8        9 am
   9        9       10 2
  10        9       11 1
  11       11       12 2
  12       12       13 1
  13       13       14 1
  14       14       15 ar
  15       15       16 ar
  16       16       17 ar
  17       17       18 1
  18       18       19 2
  19       18       20 2
  20       18       21 1
  21       21       22 1
  22       22       23 ar
  23       23       24 ar
  24       24       25 1
  25       24       26 ar
  26       26       27 ar
  27       27       28 1
  28       27       29 ar
  29       29       22 ar
  30       17       30 ar
  31       30       31 ar
  32       31       14 ar
  33       31       32 1
  34       32       11 1
  35       32       33 2
  36        5       34 ar
  37       34       35 ar
  38       35        2 ar
  39       13       36 1
  40        1       37 1
  41        1       38 1
  42        1       39 1
  43        3       40 1
  44        4       41 1
  45        6       42 1
  46        6       43 1
  47        7       44 1
  48        7       45 1
  49        8       46 1
  50       12       47 1
  51       15       48 1
  52       16       49 1
  53       21       50 1
  54       23       51 1
  55       25       52 1
  56       25       53 1
  57       25       54 1
  58       26       55 1
  59       28       56 1
  60       28       57 1
  61       28       58 1
  62       29       59 1
  63       30       60 1
  64       34       61 1
  65       35       62 1

@<TRIPOS>MOLECULE

  62   65
SMALL
USER_CHARGES
@<TRIPOS>ATOM
   1 C1          -6.8746    -0.0688    -1.2315 C.3          1    LIG   0.0000
   2 C2          -5.5750     0.2956    -0.5311 C.ar         1    LIG   0.0000
   3 C3          -5.5866     0.5883     0.8280 C.ar         1    LIG   0.0000
   4 C4          -4.4031     0.9238     1.4775 C.ar         1    LIG   0.0000
   5 C5          -3.2177     0.9605     0.7507 C.ar         1    LIG   0.0000
   6 C6          -1.9212     1.3249     1.4548 C.3          1    LIG   0.0000
   7 C7          -1.0885     2.2202     0.5517 C.3          1    LIG   0.0000
   8 N8           0.3150     2.1864     0.9875 N.am         1    LIG   0.0000
   9 C9           1.0000     1.0000     1.0000 C.2          1    LIG   0.0000
  10 O10          0.4000    -0.0392     1.0109 O.2          1    LIG   0.0000
  11 C11          2.4506     1.0000     1.0000 C.2          1    LIG   0.0000
  12 C12          3.1573    -0.1751     1.0130 C.2          1    LIG   0.0000
  13 N13          4.5284    -0.1783     1.0135 N.pl3        1    LIG   0.0000
  14 C14          5.2469     0.9896     1.0011 C.ar         1    LIG   0.0000
  15 C15          6.6375     0.9361     1.0015 C.ar         1    LIG   0.0000
  16 C16          7.3792     2.1137     0.9890 C.ar         1    LIG   0.0000
  17 C17          6.7302     3.3448     0.9754 C.ar         1    LIG   0.0000
  18 S18          7.5974     4.8529     0.9585 S.o2         1    LIG   0.0000
  19 O19          8.8558     4.6754     0.2815 O.2          1    LIG   0.0000
  20 O20          6.8173     5.8474     0.2685 O.2          1    LIG   0.0000
  21 N21          7.8683     5.3411     2.4898 N.pl3        1    LIG   0.0000
  22 C22          9.0357     4.9465     3.1541 C.ar         1    LIG   0.0000
  23 C23          8.9336     4.2095     4.3291 C.ar         1    LIG   0.0000
  24 C24         10.0991     3.8236     4.9823 C.ar         1    LIG   0.0000
  25 C25         10.0065     3.0169     6.2670 C.3          1    LIG   0.0000
  26 C26         11.3516     4.1613     4.4804 C.ar         1    LIG   0.0000
  27 C27         11.4256     4.8986     3.3036 C.ar         1    LIG   0.0000
  28 C28         12.7850     5.2782     2.7402 C.3          1    LIG   0.0000
  29 C29         10.2756     5.2977     2.6305 C.ar         1    LIG   0.0000
  30 C30          5.3414     3.3815     0.9752 C.ar         1    LIG   0.0000
  31 C31          4.5845     2.2129     0.9879 C.ar         1    LIG   0.0000
  32 C32          3.1615     2.2306     0.9871 C.2          1    LIG   0.0000
  33 O33          2.5228     3.2728     0.9760 O.2          1    LIG   0.0000
  34 C34         -3.1958     0.6689    -0.6093 C.ar         1    LIG   0.0000
  35 C35         -4.3842     0.3339    -1.2497 C.ar         1    LIG   0.0000
  36 H            5.0153    -1.0517     1.0232 H            1    LIG   0.0000
  37 H           -6.6931    -0.2487    -2.1983 H            1    LIG   0.0000
  38 H           -7.2638    -0.8866    -0.8076 H            1    LIG   0.0000
  39 H           -7.5215     0.6893    -1.1492 H            1    LIG   0.0000
  40 H           -6.4458     0.5576     1.3387 H            1    LIG   0.0000
  41 H           -4.4045     1.1359     2.4547 H            1    LIG   0.0000
  42 H           -1.4088     0.4915     1.6621 H            1    LIG   0.0000
  43 H           -2.1282     1.8090     2.3050 H            1    LIG   0.0000
  44 H           -1.1526     1.8943    -0.3915 H            1    LIG   0.0000
  45 H           -1.4314     3.1581     0.6044 H            1    LIG   0.0000
  46 H            0.7698     3.0294     1.2749 H            1    LIG   0.0000
  47 H            2.6640    -1.0449     1.0222 H            1    LIG   0.0000
  48 H            7.1039     0.0516     1.0109 H            1    LIG   0.0000
  49 H            8.3785     2.0752     0.9898 H            1    LIG   0.0000
  50 H            7.2007     5.9226     2.9548 H            1    LIG   0.0000
  51 H            8.0378     3.9614     4.6978 H            1    LIG   0.0000
  52 H           10.9271     2.8230     6.6059 H            1    LIG   0.0000
  53 H            9.5019     3.5402     6.9536 H            1    LIG   0.0000
  54 H            9.5296     2.1566     6.0867 H            1    LIG   0.0000
  55 H           12.1841     3.8790     4.9573 H            1    LIG   0.0000
  56 H           13.5043     4.9196     3.3351 H            1    LIG   0.0000
  57 H           12.8861     4.8905     1.8239 H            1    LIG   0.0000
  58 H           12.8590     6.2742     2.6907 H            1    LIG   0.0000
  59 H           10.3391     5.8278     1.7850 H            1    LIG   0.0000
  60 H            4.8754     4.2662     0.9656 H            1    LIG   0.0000
  61 H           -2.3366     0.6997    -1.1199 H            1    LIG   0.0000
  62 H           -4.3827     0.1205    -2.2267 H            1    LIG   0.0000
@<TRIPOS>BOND
   1        1        2 1
   2        2        3 ar
   3        3        4 ar
   4        4        5 ar
   5        5        6 1
   6        6        7 1
   7        7        8 1
   8        8        9 am
   9        9       10 2
  10        9       11 1
  11       11       12 2
  12       12       13 1
  13       13       14 1
  14       14       15 ar
  15       15       16 ar
  16       16       17 ar
  17       17       18 1
  18       18       19 2
  19       18       20 2
  20       18       21 1
  21       21       22 1
  22       22       23 ar
  23       23       24 ar
  24       24       25 1
  25       24       26 ar
  26       26       27 ar
  27       27       28 1
  28       27       29 ar
  29       29       22 ar
  30       17       30 ar
  31       30       31 ar
  32       31       14 ar
  33       31       32 1
  34       32       11 1
  35       32       33 2
  36        5       34 ar
  37       34       35 ar
  38       35        2 ar
  39       13       36 1
  40        1       37 1
  41        1       38 1
  42        1       39 1
  43        3       40 1
  44        4       41 1
  45        6       42 1
  46        6       43 1
  47        7       44 1
  48        7       45 1
  49        8       46 1
  50       12       47 1
  51       15       48 1
  52       16       49 1
  53       21       50 1
  54       23       51 1
  55       25       52 1
  56       25       53 1
  57       25       54 1
  58       26       55 1
  59       28       56 1
  60       28       57 1
  61       28       58 1
  62       29       59 1
  63       30       60 1
  64       34       61 1
  65       35       62 1

@<TRIPOS>MOLECULE

  62   65
SMALL
USER_CHARGES
@<TRIPOS>ATOM
   1 C1          -6.6892     2.4273     4.6609 C.3          1    LIG   0.0000
   2 C2          -5.2376     2.3782     4.2108 C.ar         1    LIG   0.0000
   3 C3          -4.5480     3.5645     3.9870 C.ar         1    LIG   0.0000
   4 C4          -3.2201     3.5300     3.5740 C.ar         1    LIG   0.0000
   5 C5          -2.5988     2.2992     3.3909 C.ar         1    LIG   0.0000
   6 C6          -1.1477     2.2548     2.9412 C.3          1    LIG   0.0000
   7 C7          -1.0885     2.2293     1.4225 C.3          1    LIG   0.0000
   8 N8           0.3150     2.1864     0.9875 N.am         1    LIG   0.0000
   9 C9           1.0000     1.0000     1.0000 C.2          1    LIG   0.0000
  10 O10          0.4000    -0.0392     1.0109 O.2          1    LIG   0.0000
  11 C11          2.4506     1.0000     1.0000 C.2          1    LIG   0.0000
  12 C12          3.1573    -0.1751     1.0130 C.2          1    LIG   0.0000
  13 N13          4.5284    -0.1783     1.0135 N.pl3        1    LIG   0.0000
  14 C14          5.2469     0.9896     1.0011 C.ar         1    LIG   0.0000
  15 C15          6.6375     0.9361     1.0015 C.ar         1    LIG   0.0000
  16 C16          7.3792     2.1137     0.9890 C.ar         1    LIG   0.0000
  17 C17          6.7302     3.3448     0.9754 C.ar         1    LIG   0.0000
  18 S18          7.5974     4.8529     0.9585 S.o2         1    LIG   0.0000
  19 O19          8.8558     4.6754     0.2815 O.2          1    LIG   0.0000
  20 O20          6.8173     5.8474     0.2685 O.2          1    LIG   0.0000
  21 N21          7.8683     5.3411     2.4898 N.pl3        1    LIG   0.0000
  22 C22          6.8022     5.7813     3.2832 C.ar         1    LIG   0.0000
  23 C23          5.5838     5.1141     3.2163 C.ar         1    LIG   0.0000
  24 C24          4.5304     5.5600     4.0072 C.ar         1    LIG   0.0000
  25 C25          3.1922     4.8423     3.9477 C.3          1    LIG   0.0000
  26 C26          4.6788     6.6525     4.8553 C.ar         1    LIG   0.0000
  27 C27          5.9079     7.3016     4.9034 C.ar         1    LIG   0.0000
  28 C28          6.0891     8.4978     5.8230 C.3          1    LIG   0.0000
  29 C29          6.9776     6.8765     4.1226 C.ar         1    LIG   0.0000
  30 C30          5.3414     3.3815     0.9752 C.ar         1    LIG   0.0000
  31 C31          4.5845     2.2129     0.9879 C.ar         1    LIG   0.0000
  32 C32          3.1615     2.2306     0.9871 C.2          1    LIG   0.0000
  33 O33          2.5228     3.2728     0.9760 O.2          1    LIG   0.0000
  34 C34         -3.2801     1.1068     3.6125 C.ar         1    LIG   0.0000
  35 C35         -4.6074     1.1515     4.0259 C.ar         1    LIG   0.0000
  36 H            5.0153    -1.0517     1.0232 H            1    LIG   0.0000
  37 H           -7.0343     1.4958     4.7756 H            1    LIG   0.0000
  38 H           -6.7520     2.9156     5.5313 H            1    LIG   0.0000
  39 H           -7.2360     2.9028     3.9718 H            1    LIG   0.0000
  40 H           -5.0066     4.4427     4.1230 H            1    LIG   0.0000
  41 H           -2.7184     4.3796     3.4108 H            1    LIG   0.0000
  42 H           -0.7108     1.4324     3.3056 H            1    LIG   0.0000
  43 H           -0.6688     3.0647     3.2799 H            1    LIG   0.0000
  44 H           -1.5674     1.4195     1.0838 H            1    LIG   0.0000
  45 H           -1.5254     3.0517     1.0581 H            1    LIG   0.0000
  46 H            0.7698     3.0231     0.6825 H            1    LIG   0.0000
  47 H            2.6640    -1.0449     1.0222 H            1    LIG   0.0000
  48 H            7.1039     0.0516     1.0109 H            1    LIG   0.0000
  49 H            8.3785     2.0752     0.9898 H            1    LIG   0.0000
  50 H            8.7961     5.3262     2.8626 H            1    LIG   0.0000
  51 H            5.4672     4.3274     2.6100 H            1    LIG   0.0000
  52 H            2.5485     5.2850     4.5720 H            1    LIG   0.0000
  53 H            2.8334     4.8828     3.0152 H            1    LIG   0.0000
  54 H            3.3140     3.8869     4.2168 H            1    LIG   0.0000
  55 H            3.9155     6.9656     5.4204 H            1    LIG   0.0000
  56 H            5.2349     8.6749     6.3118 H            1    LIG   0.0000
  57 H            6.8162     8.3046     6.4818 H            1    LIG   0.0000
  58 H            6.3355     9.3010     5.2805 H            1    LIG   0.0000
  59 H            7.8575     7.3499     4.1641 H            1    LIG   0.0000
  60 H            4.8754     4.2662     0.9656 H            1    LIG   0.0000
  61 H           -2.8215     0.2287     3.4763 H            1    LIG   0.0000
  62 H           -5.1088     0.3021     4.1902 H            1    LIG   0.0000
@<TRIPOS>BOND
   1        1        2 1
   2        2        3 ar
   3        3        4 ar
   4        4        5 ar
   5        5        6 1
   6        6        7 1
   7        7        8 1
   8        8        9 am
   9        9       10 2
  10        9       11 1
  11       11       12 2
  12       12       13 1
  13       13       14 1
  14       14       15 ar
  15       15       16 ar
  16       16       17 ar
  17       17       18 1
  18       18       19 2
  19       18       20 2
  20       18       21 1
  21       21       22 1
  22       22       23 ar
  23       23       24 ar
  24       24       25 1
  25       24       26 ar
  26       26       27 ar
  27       27       28 1
  28       27       29 ar
  29       29       22 ar
  30       17       30 ar
  31       30       31 ar
  32       31       14 ar
  33       31       32 1
  34       32       11 1
  35       32       33 2
  36        5       34 ar
  37       34       35 ar
  38       35        2 ar
  39       13       36 1
  40        1       37 1
  41        1       38 1
  42        1       39 1
  43        3       40 1
  44        4       41 1
  45        6       42 1
  46        6       43 1
  47        7       44 1
  48        7       45 1
  49        8       46 1
  50       12       47 1
  51       15       48 1
  52       16       49 1
  53       21       50 1
  54       23       51 1
  55       25       52 1
  56       25       53 1
  57       25       54 1
  58       26       55 1
  59       28       56 1
  60       28       57 1
  61       28       58 1
  62       29       59 1
  63       30       60 1
  64       34       61 1
  65       35       62 1

@<TRIPOS>MOLECULE

  62   65
SMALL
USER_CHARGES
@<TRIPOS>ATOM
   1 C1          -7.1158     0.1098     2.4589 C.3          1    LIG   0.0000
   2 C2          -5.7729     0.5415     1.8910 C.ar         1    LIG   0.0000
   3 C3          -4.7431    -0.3863     1.7834 C.ar         1    LIG   0.0000
   4 C4          -3.5106    -0.0008     1.2662 C.ar         1    LIG   0.0000
   5 C5          -3.3275     1.3172     0.8612 C.ar         1    LIG   0.0000
   6 C6          -1.9838     1.7443     0.2940 C.3          1    LIG   0.0000
   7 C7          -1.0885     2.2293     1.4225 C.3          1    LIG   0.0000
   8 N8           0.3150     2.1864     0.9875 N.am         1    LIG   0.0000
   9 C9           1.0000     1.0000     1.0000 C.2          1    LIG   0.0000
  10 O10          0.4000    -0.0392     1.0109 O.2          1    LIG   0.0000
  11 C11          2.4506     1.0000     1.0000 C.2          1    LIG   0.0000
  12 C12          3.1573    -0.1751     1.0130 C.2          1    LIG   0.0000
  13 N13          4.5284    -0.1783     1.0135 N.pl3        1    LIG   0.0000
  14 C14          5.2469     0.9896     1.0011 C.ar         1    LIG   0.0000
  15 C15          6.6375     0.9361     1.0015 C.ar         1    LIG   0.0000
  16 C16          7.3792     2.1137     0.9890 C.ar         1    LIG   0.0000
  17 C17          6.7302     3.3448     0.9754 C.ar         1    LIG   0.0000
  18 S18          7.5974     4.8529     0.9585 S.o2         1    LIG   0.0000
  19 O19          8.8558     4.6754     0.2815 O.2          1    LIG   0.0000
  20 O20          6.8173     5.8474     0.2685 O.2          1    LIG   0.0000
  21 N21          7.8683     5.3411     2.4898 N.pl3        1    LIG   0.0000
  22 C22          6.8134     5.3797     3.4092 C.ar         1    LIG   0.0000
  23 C23          6.8878     4.6065     4.5628 C.ar         1    LIG   0.0000
  24 C24          5.8340     4.6506     5.4692 C.ar         1    LIG   0.0000
  25 C25          5.8989     3.8130     6.7356 C.3          1    LIG   0.0000
  26 C26          4.7191     5.4499     5.2391 C.ar         1    LIG   0.0000
  27 C27          4.6700     6.2135     4.0778 C.ar         1    LIG   0.0000
  28 C28          3.4598     7.0923     3.8083 C.3          1    LIG   0.0000
  29 C29          5.7101     6.1877     3.1546 C.ar         1    LIG   0.0000
  30 C30          5.3414     3.3815     0.9752 C.ar         1    LIG   0.0000
  31 C31          4.5845     2.2129     0.9879 C.ar         1    LIG   0.0000
  32 C32          3.1615     2.2306     0.9871 C.2          1    LIG   0.0000
  33 O33          2.5228     3.2728     0.9760 O.2          1    LIG   0.0000
  34 C34         -4.3518     2.2527     0.9646 C.ar         1    LIG   0.0000
  35 C35         -5.5808     1.8577     1.4824 C.ar         1    LIG   0.0000
  36 H            5.0153    -1.0517     1.0232 H            1    LIG   0.0000
  37 H           -7.7406     0.8906     2.4675 H            1    LIG   0.0000
  38 H           -7.4996    -0.6180     1.8906 H            1    LIG   0.0000
  39 H           -6.9903    -0.2269     3.3921 H            1    LIG   0.0000
  40 H           -4.8884    -1.3309     2.0778 H            1    LIG   0.0000
  41 H           -2.7655    -0.6630     1.1865 H            1    LIG   0.0000
  42 H           -2.1201     2.4841    -0.3649 H            1    LIG   0.0000
  43 H           -1.5524     0.9663    -0.1628 H            1    LIG   0.0000
  44 H           -1.3344     3.1684     1.6629 H            1    LIG   0.0000
  45 H           -1.2084     1.6387     2.2205 H            1    LIG   0.0000
  46 H            0.7698     3.0231     0.6825 H            1    LIG   0.0000
  47 H            2.6640    -1.0449     1.0222 H            1    LIG   0.0000
  48 H            7.1039     0.0516     1.0109 H            1    LIG   0.0000
  49 H            8.3785     2.0752     0.9898 H            1    LIG   0.0000
  50 H            8.7882     5.6131     2.7726 H            1    LIG   0.0000
  51 H            7.6852     4.0289     4.7375 H            1    LIG   0.0000
  52 H            5.0689     3.9583     7.2742 H            1    LIG   0.0000
  53 H            5.9732     2.8459     6.4923 H            1    LIG   0.0000
  54 H            6.6971     4.0837     7.2737 H            1    LIG   0.0000
  55 H            3.9664     5.4750     5.8970 H            1    LIG   0.0000
  56 H            2.8068     6.9999     4.5600 H            1    LIG   0.0000
  57 H            3.7504     8.0463     3.7346 H            1    LIG   0.0000
  58 H            3.0259     6.8089     2.9531 H            1    LIG   0.0000
  59 H            5.6654     6.7403     2.3224 H            1    LIG   0.0000
  60 H            4.8754     4.2662     0.9656 H            1    LIG   0.0000
  61 H           -4.2064     3.1973     0.6703 H            1    LIG   0.0000
  62 H           -6.3263     2.5195     1.5610 H            1    LIG   0.0000
@<TRIPOS>BOND
   1        1        2 1
   2        2        3 ar
   3        3        4 ar
   4        4        5 ar
   5        5        6 1
   6        6        7 1
   7        7        8 1
   8        8        9 am
   9        9       10 2
  10        9       11 1
  11       11       12 2
  12       12       13 1
  13       13       14 1
  14       14       15 ar
  15       15       16 ar
  16       16       17 ar
  17       17       18 1
  18       18       19 2
  19       18       20 2
  20       18       21 1
  21       21       22 1
  22       22       23 ar
  23       23       24 ar
  24       24       25 1
  25       24       26 ar
  26       26       27 ar
  27       27       28 1
  28       27       29 ar
  29       29       22 ar
  30       17       30 ar
  31       30       31 ar
  32       31       14 ar
  33       31       32 1
  34       32       11 1
  35       32       33 2
  36        5       34 ar
  37       34       35 ar
  38       35        2 ar
  39       13       36 1
  40        1       37 1
  41        1       38 1
  42        1       39 1
  43        3       40 1
  44        4       41 1
  45        6       42 1
  46        6       43 1
  47        7       44 1
  48        7       45 1
  49        8       46 1
  50       12       47 1
  51       15       48 1
  52       16       49 1
  53       21       50 1
  54       23       51 1
  55       25       52 1
  56       25       53 1
  57       25       54 1
  58       26       55 1
  59       28       56 1
  60       28       57 1
  61       28       58 1
  62       29       59 1
  63       30       60 1
  64       34       61 1
  65       35       62 1

@<TRIPOS>MOLECULE

  62   65
SMALL
USER_CHARGES
@<TRIPOS>ATOM
   1 C1          -6.7271    -0.7843    -0.4842 C.3          1    LIG   0.0000
   2 C2          -5.4829    -0.1216     0.0857 C.ar         1    LIG   0.0000
   3 C3          -5.4853     1.2470     0.3306 C.ar         1    LIG   0.0000
   4 C4          -4.3515     1.8627     0.8508 C.ar         1    LIG   0.0000
   5 C5          -3.2251     1.0925     1.1204 C.ar         1    LIG   0.0000
   6 C6          -1.9838     1.7589     1.6902 C.3          1    LIG   0.0000
   7 C7          -1.0885     2.2202     0.5517 C.3          1    LIG   0.0000
   8 N8           0.3150     2.1864     0.9875 N.am         1    LIG   0.0000
   9 C9           1.0000     1.0000     1.0000 C.2          1    LIG   0.0000
  10 O10          0.4000    -0.0392     1.0109 O.2          1    LIG   0.0000
  11 C11          2.4506     1.0000     1.0000 C.2          1    LIG   0.0000
  12 C12          3.1573    -0.1751     1.0130 C.2          1    LIG   0.0000
  13 N13          4.5284    -0.1783     1.0135 N.pl3        1    LIG   0.0000
  14 C14          5.2469     0.9896     1.0011 C.ar         1    LIG   0.0000
  15 C15          6.6375     0.9361     1.0015 C.ar         1    LIG   0.0000
  16 C16          7.3792     2.1137     0.9890 C.ar         1    LIG   0.0000
  17 C17          6.7302     3.3448     0.9754 C.ar         1    LIG   0.0000
  18 S18          7.5974     4.8529     0.9585 S.o2         1    LIG   0.0000
  19 O19          8.8558     4.6754     0.2815 O.2          1    LIG   0.0000
  20 O20          6.8173     5.8474     0.2685 O.2          1    LIG   0.0000
  21 N21          7.8683     5.3411     2.4898 N.pl3        1    LIG   0.0000
  22 C22          6.9874     6.2387     3.1046 C.ar         1    LIG   0.0000
  23 C23          6.6324     7.4071     2.4389 C.ar         1    LIG   0.0000
  24 C24          5.7578     8.2930     3.0587 C.ar         1    LIG   0.0000
  25 C25          5.3581     9.5742     2.3456 C.3          1    LIG   0.0000
  26 C26          5.2390     8.0278     4.3218 C.ar         1    LIG   0.0000
  27 C27          5.6100     6.8521     4.9654 C.ar         1    LIG   0.0000
  28 C28          5.0545     6.5454     6.3463 C.3          1    LIG   0.0000
  29 C29          6.4833     5.9491     4.3683 C.ar         1    LIG   0.0000
  30 C30          5.3414     3.3815     0.9752 C.ar         1    LIG   0.0000
  31 C31          4.5845     2.2129     0.9879 C.ar         1    LIG   0.0000
  32 C32          3.1615     2.2306     0.9871 C.2          1    LIG   0.0000
  33 O33          2.5228     3.2728     0.9760 O.2          1    LIG   0.0000
  34 C34         -3.2131    -0.2775     0.8792 C.ar         1    LIG   0.0000
  35 C35         -4.3517    -0.8841     0.3595 C.ar         1    LIG   0.0000
  36 H            5.0153    -1.0517     1.0232 H            1    LIG   0.0000
  37 H           -6.5602    -1.7635    -0.5995 H            1    LIG   0.0000
  38 H           -7.4941    -0.6485     0.1430 H            1    LIG   0.0000
  39 H           -6.9454    -0.3767    -1.3709 H            1    LIG   0.0000
  40 H           -6.3021     1.7889     0.1326 H            1    LIG   0.0000
  41 H           -4.3463     2.8467     1.0288 H            1    LIG   0.0000
  42 H           -1.4869     1.1054     2.2612 H            1    LIG   0.0000
  43 H           -2.2529     2.5475     2.2432 H            1    LIG   0.0000
  44 H           -1.2084     1.6129    -0.2336 H            1    LIG   0.0000
  45 H           -1.3344     3.1540     0.2917 H            1    LIG   0.0000
  46 H            0.7698     3.0294     1.2749 H            1    LIG   0.0000
  47 H            2.6640    -1.0449     1.0222 H            1    LIG   0.0000
  48 H            7.1039     0.0516     1.0109 H            1    LIG   0.0000
  49 H            8.3785     2.0752     0.9898 H            1    LIG   0.0000
  50 H            8.6639     4.9995     2.9902 H            1    LIG   0.0000
  51 H            6.9996     7.6066     1.5305 H            1    LIG   0.0000
  52 H            4.7294    10.0949     2.9232 H            1    LIG   0.0000
  53 H            6.1742    10.1223     2.1626 H            1    LIG   0.0000
  54 H            4.9076     9.3483     1.4819 H            1    LIG   0.0000
  55 H            4.6106     8.6711     4.7593 H            1    LIG   0.0000
  56 H            4.4472     7.2861     6.6334 H            1    LIG   0.0000
  57 H            4.5423     5.6870     6.3164 H            1    LIG   0.0000
  58 H            5.8086     6.4611     6.9977 H            1    LIG   0.0000
  59 H            6.7442     5.1064     4.8392 H            1    LIG   0.0000
  60 H            4.8754     4.2662     0.9656 H            1    LIG   0.0000
  61 H           -2.3961    -0.8192     1.0770 H            1    LIG   0.0000
  62 H           -4.3573    -1.8683     0.1827 H            1    LIG   0.0000
@<TRIPOS>BOND
   1        1        2 1
   2        2        3 ar
   3        3        4 ar
   4        4        5 ar
   5        5        6 1
   6        6        7 1
   7        7        8 1
   8        8        9 am
   9        9       10 2
  10        9       11 1
  11       11       12 2
  12       12       13 1
  13       13       14 1
  14       14       15 ar
  15       15       16 ar
  16       16       17 ar
  17       17       18 1
  18       18       19 2
  19       18       20 2
  20       18       21 1
  21       21       22 1
  22       22       23 ar
  23       23       24 ar
  24       24       25 1
  25       24       26 ar
  26       26       27 ar
  27       27       28 1
  28       27       29 ar
  29       29       22 ar
  30       17       30 ar
  31       30       31 ar
  32       31       14 ar
  33       31       32 1
  34       32       11 1
  35       32       33 2
  36        5       34 ar
  37       34       35 ar
  38       35        2 ar
  39       13       36 1
  40        1       37 1
  41        1       38 1
  42        1       39 1
  43        3       40 1
  44        4       41 1
  45        6       42 1
  46        6       43 1
  47        7       44 1
  48        7       45 1
  49        8       46 1
  50       12       47 1
  51       15       48 1
  52       16       49 1
  53       21       50 1
  54       23       51 1
  55       25       52 1
  56       25       53 1
  57       25       54 1
  58       26       55 1
  59       28       56 1
  60       28       57 1
  61       28       58 1
  62       29       59 1
  63       30       60 1
  64       34       61 1
  65       35       62 1

@<TRIPOS>MOLECULE

  62   65
SMALL
USER_CHARGES
@<TRIPOS>ATOM
   1 C1          -6.1243     3.1765    -3.3994 C.3          1    LIG   0.0000
   2 C2          -4.8387     2.7370    -2.7167 C.ar         1    LIG   0.0000
   3 C3          -4.8299     2.5218    -1.3432 C.ar         1    LIG   0.0000
   4 C4          -3.6584     2.1207    -0.7093 C.ar         1    LIG   0.0000
   5 C5          -2.5058     1.9394    -1.4663 C.ar         1    LIG   0.0000
   6 C6          -1.2230     1.4999    -0.7800 C.3          1    LIG   0.0000
   7 C7          -1.0885     2.2202     0.5517 C.3          1    LIG   0.0000
   8 N8           0.3150     2.1864     0.9875 N.am         1    LIG   0.0000
   9 C9           1.0000     1.0000     1.0000 C.2          1    LIG   0.0000
  10 O10          0.4000    -0.0392     1.0109 O.2          1    LIG   0.0000
  11 C11          2.4506     1.0000     1.0000 C.2          1    LIG   0.0000
  12 C12          3.1573    -0.1751     1.0130 C.2          1    LIG   0.0000
  13 N13          4.5284    -0.1783     1.0135 N.pl3        1    LIG   0.0000
  14 C14          5.2469     0.9896     1.0011 C.ar         1    LIG   0.0000
  15 C15          6.6375     0.9361     1.0015 C.ar         1    LIG   0.0000
  16 C16          7.3792     2.1137     0.9890 C.ar         1    LIG   0.0000
  17 C17          6.7302     3.3448     0.9754 C.ar         1    LIG   0.0000
  18 S18          7.5974     4.8529     0.9585 S.o2         1    LIG   0.0000
  19 O19          8.4250     4.9175    -0.2182 O.2          1    LIG   0.0000
  20 O20          6.6597     5.9457     0.9463 O.2          1    LIG   0.0000
  21 N21          8.5344     4.9558     2.2882 N.pl3        1    LIG   0.0000
  22 C22          7.9466     5.1262     3.5472 C.ar         1    LIG   0.0000
  23 C23          8.1583     4.1673     4.5321 C.ar         1    LIG   0.0000
  24 C24          7.5687     4.3449     5.7790 C.ar         1    LIG   0.0000
  25 C25          7.7901     3.3077     6.8675 C.3          1    LIG   0.0000
  26 C26          6.7793     5.4575     6.0506 C.ar         1    LIG   0.0000
  27 C27          6.5839     6.4015     5.0482 C.ar         1    LIG   0.0000
  28 C28          5.7238     7.6232     5.3255 C.3          1    LIG   0.0000
  29 C29          7.1616     6.2481     3.7922 C.ar         1    LIG   0.0000
  30 C30          5.3414     3.3815     0.9752 C.ar         1    LIG   0.0000
  31 C31          4.5845     2.2129     0.9879 C.ar         1    LIG   0.0000
  32 C32          3.1615     2.2306     0.9871 C.2          1    LIG   0.0000
  33 O33          2.5228     3.2728     0.9760 O.2          1    LIG   0.0000
  34 C34         -2.5045     2.1519    -2.8411 C.ar         1    LIG   0.0000
  35 C35         -3.6809     2.5522    -3.4660 C.ar         1    LIG   0.0000
  36 H            5.0153    -1.0517     1.0232 H            1    LIG   0.0000
  37 H           -5.9605     3.2861    -4.3798 H            1    LIG   0.0000
  38 H           -6.8318     2.4847    -3.2549 H            1    LIG   0.0000
  39 H           -6.4262     4.0478    -3.0125 H            1    LIG   0.0000
  40 H           -5.6659     2.6553    -0.8109 H            1    LIG   0.0000
  41 H           -3.6451     1.9646     0.2784 H            1    LIG   0.0000
  42 H           -0.4405     1.7241    -1.3608 H            1    LIG   0.0000
  43 H           -1.2501     0.5125    -0.6236 H            1    LIG   0.0000
  44 H           -1.3825     3.1704     0.4480 H            1    LIG   0.0000
  45 H           -1.6608     1.7670     1.2352 H            1    LIG   0.0000
  46 H            0.7698     3.0294     1.2749 H            1    LIG   0.0000
  47 H            2.6640    -1.0449     1.0222 H            1    LIG   0.0000
  48 H            7.1039     0.0516     1.0109 H            1    LIG   0.0000
  49 H            8.3785     2.0752     0.9898 H            1    LIG   0.0000
  50 H            9.5292     4.8973     2.2046 H            1    LIG   0.0000
  51 H            8.7245     3.3642     4.3468 H            1    LIG   0.0000
  52 H            7.3013     3.5835     7.6952 H            1    LIG   0.0000
  53 H            7.4471     2.4209     6.5577 H            1    LIG   0.0000
  54 H            8.7676     3.2361     7.0660 H            1    LIG   0.0000
  55 H            6.3597     5.5765     6.9505 H            1    LIG   0.0000
  56 H            5.3851     7.5860     6.2657 H            1    LIG   0.0000
  57 H            6.2705     8.4511     5.2006 H            1    LIG   0.0000
  58 H            4.9496     7.6364     4.6926 H            1    LIG   0.0000
  59 H            7.0151     6.9323     3.0778 H            1    LIG   0.0000
  60 H            4.8754     4.2662     0.9656 H            1    LIG   0.0000
  61 H           -1.6685     2.0185    -3.3733 H            1    LIG   0.0000
  62 H           -3.6945     2.7071    -4.4538 H            1    LIG   0.0000
@<TRIPOS>BOND
   1        1        2 1
   2        2        3 ar
   3        3        4 ar
   4        4        5 ar
   5        5        6 1
   6        6        7 1
   7        7        8 1
   8        8        9 am
   9        9       10 2
  10        9       11 1
  11       11       12 2
  12       12       13 1
  13       13       14 1
  14       14       15 ar
  15       15       16 ar
  16       16       17 ar
  17       17       18 1
  18       18       19 2
  19       18       20 2
  20       18       21 1
  21       21       22 1
  22       22       23 ar
  23       23       24 ar
  24       24       25 1
  25       24       26 ar
  26       26       27 ar
  27       27       28 1
  28       27       29 ar
  29       29       22 ar
  30       17       30 ar
  31       30       31 ar
  32       31       14 ar
  33       31       32 1
  34       32       11 1
  35       32       33 2
  36        5       34 ar
  37       34       35 ar
  38       35        2 ar
  39       13       36 1
  40        1       37 1
  41        1       38 1
  42        1       39 1
  43        3       40 1
  44        4       41 1
  45        6       42 1
  46        6       43 1
  47        7       44 1
  48        7       45 1
  49        8       46 1
  50       12       47 1
  51       15       48 1
  52       16       49 1
  53       21       50 1
  54       23       51 1
  55       25       52 1
  56       25       53 1
  57       25       54 1
  58       26       55 1
  59       28       56 1
  60       28       57 1
  61       28       58 1
  62       29       59 1
  63       30       60 1
  64       34       61 1
  65       35       62 1

@<TRIPOS>MOLECULE

  62   65
SMALL
USER_CHARGES
@<TRIPOS>ATOM
   1 C1          -5.3779    -0.0453    -3.8281 C.3          1    LIG   0.0000
   2 C2          -4.1909     0.5956    -3.1264 C.ar         1    LIG   0.0000
   3 C3          -2.9096     0.1111    -3.3642 C.ar         1    LIG   0.0000
   4 C4          -1.8174     0.6900    -2.7261 C.ar         1    LIG   0.0000
   5 C5          -2.0268     1.7532    -1.8541 C.ar         1    LIG   0.0000
   6 C6          -0.8375     2.3909    -1.1551 C.3          1    LIG   0.0000
   7 C7          -1.0073     2.2650     0.3501 C.3          1    LIG   0.0000
   8 N8           0.3150     2.1864     0.9875 N.am         1    LIG   0.0000
   9 C9           1.0000     1.0000     1.0000 C.2          1    LIG   0.0000
  10 O10          0.4000    -0.0392     1.0109 O.2          1    LIG   0.0000
  11 C11          2.4506     1.0000     1.0000 C.2          1    LIG   0.0000
  12 C12          3.1573    -0.1751     1.0130 C.2          1    LIG   0.0000
  13 N13          4.5284    -0.1783     1.0135 N.pl3        1    LIG   0.0000
  14 C14          5.2469     0.9896     1.0011 C.ar         1    LIG   0.0000
  15 C15          6.6375     0.9361     1.0015 C.ar         1    LIG   0.0000
  16 C16          7.3792     2.1137     0.9890 C.ar         1    LIG   0.0000
  17 C17          6.7302     3.3448     0.9754 C.ar         1    LIG   0.0000
  18 S18          7.5974     4.8529     0.9585 S.o2         1    LIG   0.0000
  19 O19          8.4250     4.9175    -0.2182 O.2          1    LIG   0.0000
  20 O20          6.6597     5.9457     0.9463 O.2          1    LIG   0.0000
  21 N21          8.5344     4.9558     2.2882 N.pl3        1    LIG   0.0000
  22 C22          7.9466     5.1262     3.5472 C.ar         1    LIG   0.0000
  23 C23          8.2630     6.2527     4.2988 C.ar         1    LIG   0.0000
  24 C24          7.6750     6.4120     5.5490 C.ar         1    LIG   0.0000
  25 C25          8.0084     7.6376     6.3836 C.3          1    LIG   0.0000
  26 C26          6.7839     5.4694     6.0512 C.ar         1    LIG   0.0000
  27 C27          6.4845     4.3521     5.2790 C.ar         1    LIG   0.0000
  28 C28          5.5140     3.3107     5.8111 C.3          1    LIG   0.0000
  29 C29          7.0588     4.1682     4.0256 C.ar         1    LIG   0.0000
  30 C30          5.3414     3.3815     0.9752 C.ar         1    LIG   0.0000
  31 C31          4.5845     2.2129     0.9879 C.ar         1    LIG   0.0000
  32 C32          3.1615     2.2306     0.9871 C.2          1    LIG   0.0000
  33 O33          2.5228     3.2728     0.9760 O.2          1    LIG   0.0000
  34 C34         -3.3048     2.2452    -1.6099 C.ar         1    LIG   0.0000
  35 C35         -4.3905     1.6603    -2.2531 C.ar         1    LIG   0.0000
  36 H            5.0153    -1.0517     1.0232 H            1    LIG   0.0000
  37 H           -6.2195     0.4175    -3.5495 H            1    LIG   0.0000
  38 H           -5.2642     0.0373    -4.8182 H            1    LIG   0.0000
  39 H           -5.4308    -1.0121    -3.5781 H            1    LIG   0.0000
  40 H           -2.7732    -0.6536    -3.9940 H            1    LIG   0.0000
  41 H           -0.8932     0.3460    -2.8923 H            1    LIG   0.0000
  42 H           -0.7832     3.3577    -1.4047 H            1    LIG   0.0000
  43 H            0.0025     1.9265    -1.4358 H            1    LIG   0.0000
  44 H           -1.4982     3.0637     0.6982 H            1    LIG   0.0000
  45 H           -1.5277     1.4369     0.5588 H            1    LIG   0.0000
  46 H            0.7145     2.9989     1.4120 H            1    LIG   0.0000
  47 H            2.6640    -1.0449     1.0222 H            1    LIG   0.0000
  48 H            7.1039     0.0516     1.0109 H            1    LIG   0.0000
  49 H            8.3785     2.0752     0.9898 H            1    LIG   0.0000
  50 H            9.5292     4.8973     2.2046 H            1    LIG   0.0000
  51 H            8.9022     6.9363     3.9464 H            1    LIG   0.0000
  52 H            7.5059     7.5993     7.2474 H            1    LIG   0.0000
  53 H            8.9907     7.6568     6.5699 H            1    LIG   0.0000
  54 H            7.7479     8.4629     5.8827 H            1    LIG   0.0000
  55 H            6.3660     5.5929     6.9512 H            1    LIG   0.0000
  56 H            5.1921     3.5869     6.7167 H            1    LIG   0.0000
  57 H            4.7345     3.2332     5.1895 H            1    LIG   0.0000
  58 H            5.9769     2.4267     5.8771 H            1    LIG   0.0000
  59 H            6.8373     3.3613     3.4780 H            1    LIG   0.0000
  60 H            4.8754     4.2662     0.9656 H            1    LIG   0.0000
  61 H           -3.4412     3.0098    -0.9800 H            1    LIG   0.0000
  62 H           -5.3146     2.0049    -2.0878 H            1    LIG   0.0000
@<TRIPOS>BOND
   1        1        2 1
   2        2        3 ar
   3        3        4 ar
   4        4        5 ar
   5        5        6 1
   6        6        7 1
   7        7        8 1
   8        8        9 am
   9        9       10 2
  10        9       11 1
  11       11       12 2
  12       12       13 1
  13       13       14 1
  14       14       15 ar
  15       15       16 ar
  16       16       17 ar
  17       17       18 1
  18       18       19 2
  19       18       20 2
  20       18       21 1
  21       21       22 1
  22       22       23 ar
  23       23       24 ar
  24       24       25 1
  25       24       26 ar
  26       26       27 ar
  27       27       28 1
  28       27       29 ar
  29       29       22 ar
  30       17       30 ar
  31       30       31 ar
  32       31       14 ar
  33       31       32 1
  34       32       11 1
  35       32       33 2
  36        5       34 ar
  37       34       35 ar
  38       35        2 ar
  39       13       36 1
  40        1       37 1
  41        1       38 1
  42        1       39 1
  43        3       40 1
  44        4       41 1
  45        6       42 1
  46        6       43 1
  47        7       44 1
  48        7       45 1
  49        8       46 1
  50       12       47 1
  51       15       48 1
  52       16       49 1
  53       21       50 1
  54       23       51 1
  55       25       52 1
  56       25       53 1
  57       25       54 1
  58       26       55 1
  59       28       56 1
  60       28       57 1
  61       28       58 1
  62       29       59 1
  63       30       60 1
  64       34       61 1
  65       35       62 1

@<TRIPOS>MOLECULE

  62   65
SMALL
USER_CHARGES
@<TRIPOS>ATOM
   1 C1          -5.8851     5.1433     4.6468 C.3          1    LIG   0.0000
   2 C2          -4.6461     4.3833     4.2003 C.ar         1    LIG   0.0000
   3 C3          -3.4532     5.0700     4.0045 C.ar         1    LIG   0.0000
   4 C4          -2.3145     4.3837     3.5950 C.ar         1    LIG   0.0000
   5 C5          -2.3886     3.0105     3.3871 C.ar         1    LIG   0.0000
   6 C6          -1.1477     2.2548     2.9412 C.3          1    LIG   0.0000
   7 C7          -1.0885     2.2293     1.4225 C.3          1    LIG   0.0000
   8 N8           0.3150     2.1864     0.9875 N.am         1    LIG   0.0000
   9 C9           1.0000     1.0000     1.0000 C.2          1    LIG   0.0000
  10 O10          0.4000    -0.0392     1.0109 O.2          1    LIG   0.0000
  11 C11          2.4506     1.0000     1.0000 C.2          1    LIG   0.0000
  12 C12          3.1573    -0.1751     1.0130 C.2          1    LIG   0.0000
  13 N13          4.5284    -0.1783     1.0135 N.pl3        1    LIG   0.0000
  14 C14          5.2469     0.9896     1.0011 C.ar         1    LIG   0.0000
  15 C15          6.6375     0.9361     1.0015 C.ar         1    LIG   0.0000
  16 C16          7.3792     2.1137     0.9890 C.ar         1    LIG   0.0000
  17 C17          6.7302     3.3448     0.9754 C.ar         1    LIG   0.0000
  18 S18          7.5974     4.8529     0.9585 S.o2         1    LIG   0.0000
  19 O19          8.4250     4.9175    -0.2182 O.2          1    LIG   0.0000
  20 O20          6.6597     5.9457     0.9463 O.2          1    LIG   0.0000
  21 N21          8.5344     4.9558     2.2882 N.pl3        1    LIG   0.0000
  22 C22          7.9466     5.1262     3.5472 C.ar         1    LIG   0.0000
  23 C23          8.7147     5.6228     4.5949 C.ar         1    LIG   0.0000
  24 C24          8.1219     5.7869     5.8422 C.ar         1    LIG   0.0000
  25 C25          8.9459     6.3294     6.9983 C.3          1    LIG   0.0000
  26 C26          6.7852     5.4647     6.0524 C.ar         1    LIG   0.0000
  27 C27          6.0395     4.9702     4.9877 C.ar         1    LIG   0.0000
  28 C28          4.5779     4.6115     5.1980 C.3          1    LIG   0.0000
  29 C29          6.6078     4.7960     3.7301 C.ar         1    LIG   0.0000
  30 C30          5.3414     3.3815     0.9752 C.ar         1    LIG   0.0000
  31 C31          4.5845     2.2129     0.9879 C.ar         1    LIG   0.0000
  32 C32          3.1615     2.2306     0.9871 C.2          1    LIG   0.0000
  33 O33          2.5228     3.2728     0.9760 O.2          1    LIG   0.0000
  34 C34         -3.5774     2.3144     3.5807 C.ar         1    LIG   0.0000
  35 C35         -4.7104     3.0092     3.9908 C.ar         1    LIG   0.0000
  36 H            5.0153    -1.0517     1.0232 H            1    LIG   0.0000
  37 H           -6.6509     4.5070     4.7401 H            1    LIG   0.0000
  38 H           -5.7074     5.5825     5.5274 H            1    LIG   0.0000
  39 H           -6.1119     5.8402     3.9664 H            1    LIG   0.0000
  40 H           -3.4137     6.0573     4.1581 H            1    LIG   0.0000
  41 H           -1.4534     4.8717     3.4519 H            1    LIG   0.0000
  42 H           -1.1850     1.3180     3.2890 H            1    LIG   0.0000
  43 H           -0.3330     2.7111     3.2989 H            1    LIG   0.0000
  44 H           -1.5674     1.4195     1.0838 H            1    LIG   0.0000
  45 H           -1.5254     3.0517     1.0581 H            1    LIG   0.0000
  46 H            0.7698     3.0231     0.6825 H            1    LIG   0.0000
  47 H            2.6640    -1.0449     1.0222 H            1    LIG   0.0000
  48 H            7.1039     0.0516     1.0109 H            1    LIG   0.0000
  49 H            8.3785     2.0752     0.9898 H            1    LIG   0.0000
  50 H            9.5292     4.8973     2.2046 H            1    LIG   0.0000
  51 H            9.6764     5.8577     4.4538 H            1    LIG   0.0000
  52 H            8.3747     6.3854     7.8172 H            1    LIG   0.0000
  53 H            9.7187     5.7191     7.1720 H            1    LIG   0.0000
  54 H            9.2863     7.2406     6.7663 H            1    LIG   0.0000
  55 H            6.3679     5.5864     6.9530 H            1    LIG   0.0000
  56 H            4.3235     4.7927     6.1480 H            1    LIG   0.0000
  57 H            4.0082     5.1637     4.5892 H            1    LIG   0.0000
  58 H            4.4400     3.6420     4.9952 H            1    LIG   0.0000
  59 H            6.0634     4.4396     2.9708 H            1    LIG   0.0000
  60 H            4.8754     4.2662     0.9656 H            1    LIG   0.0000
  61 H           -3.6168     1.3271     3.4269 H            1    LIG   0.0000
  62 H           -5.5712     2.5212     4.1350 H            1    LIG   0.0000
@<TRIPOS>BOND
   1        1        2 1
   2        2        3 ar
   3        3        4 ar
   4        4        5 ar
   5        5        6 1
   6        6        7 1
   7        7        8 1
   8        8        9 am
   9        9       10 2
  10        9       11 1
  11       11       12 2
  12       12       13 1
  13       13       14 1
  14       14       15 ar
  15       15       16 ar
  16       16       17 ar
  17       17       18 1
  18       18       19 2
  19       18       20 2
  20       18       21 1
  21       21       22 1
  22       22       23 ar
  23       23       24 ar
  24       24       25 1
  25       24       26 ar
  26       26       27 ar
  27       27       28 1
  28       27       29 ar
  29       29       22 ar
  30       17       30 ar
  31       30       31 ar
  32       31       14 ar
  33       31       32 1
  34       32       11 1
  35       32       33 2
  36        5       34 ar
  37       34       35 ar
  38       35        2 ar
  39       13       36 1
  40        1       37 1
  41        1       38 1
  42        1       39 1
  43        3       40 1
  44        4       41 1
  45        6       42 1
  46        6       43 1
  47        7       44 1
  48        7       45 1
  49        8       46 1
  50       12       47 1
  51       15       48 1
  52       16       49 1
  53       21       50 1
  54       23       51 1
  55       25       52 1
  56       25       53 1
  57       25       54 1
  58       26       55 1
  59       28       56 1
  60       28       57 1
  61       28       58 1
  62       29       59 1
  63       30       60 1
  64       34       61 1
  65       35       62 1

@<TRIPOS>MOLECULE

  62   65
SMALL
USER_CHARGES
@<TRIPOS>ATOM
   1 C1          -6.8830     5.1135     1.4392 C.3          1    LIG   0.0000
   2 C2          -5.6015     4.3623     1.1141 C.ar         1    LIG   0.0000
   3 C3          -5.5313     2.9931     1.3446 C.ar         1    LIG   0.0000
   4 C4          -4.3629     2.2972     1.0514 C.ar         1    LIG   0.0000
   5 C5          -3.2755     2.9883     0.5275 C.ar         1    LIG   0.0000
   6 C6          -1.9968     2.2335     0.2037 C.3          1    LIG   0.0000
   7 C7          -1.0885     2.2293     1.4225 C.3          1    LIG   0.0000
   8 N8           0.3150     2.1864     0.9875 N.am         1    LIG   0.0000
   9 C9           1.0000     1.0000     1.0000 C.2          1    LIG   0.0000
  10 O10          0.4000    -0.0392     1.0109 O.2          1    LIG   0.0000
  11 C11          2.4506     1.0000     1.0000 C.2          1    LIG   0.0000
  12 C12          3.1573    -0.1751     1.0130 C.2          1    LIG   0.0000
  13 N13          4.5284    -0.1783     1.0135 N.pl3        1    LIG   0.0000
  14 C14          5.2469     0.9896     1.0011 C.ar         1    LIG   0.0000
  15 C15          6.6375     0.9361     1.0015 C.ar         1    LIG   0.0000
  16 C16          7.3792     2.1137     0.9890 C.ar         1    LIG   0.0000
  17 C17          6.7302     3.3448     0.9754 C.ar         1    LIG   0.0000
  18 S18          7.5974     4.8529     0.9585 S.o2         1    LIG   0.0000
  19 O19          8.4250     4.9175    -0.2182 O.2          1    LIG   0.0000
  20 O20          6.6597     5.9457     0.9463 O.2          1    LIG   0.0000
  21 N21          8.5344     4.9558     2.2882 N.pl3        1    LIG   0.0000
  22 C22          7.9466     5.1262     3.5472 C.ar         1    LIG   0.0000
  23 C23          6.7393     5.8091     3.6475 C.ar         1    LIG   0.0000
  24 C24          6.1642     5.9744     4.9028 C.ar         1    LIG   0.0000
  25 C25          4.8445     6.7171     5.0311 C.3          1    LIG   0.0000
  26 C26          6.7745     5.4703     6.0467 C.ar         1    LIG   0.0000
  27 C27          7.9813     4.7911     5.9185 C.ar         1    LIG   0.0000
  28 C28          8.6639     4.2341     7.1567 C.3          1    LIG   0.0000
  29 C29          8.5782     4.6121     4.6749 C.ar         1    LIG   0.0000
  30 C30          5.3414     3.3815     0.9752 C.ar         1    LIG   0.0000
  31 C31          4.5845     2.2129     0.9879 C.ar         1    LIG   0.0000
  32 C32          3.1615     2.2306     0.9871 C.2          1    LIG   0.0000
  33 O33          2.5228     3.2728     0.9760 O.2          1    LIG   0.0000
  34 C34         -3.3361     4.3581     0.2930 C.ar         1    LIG   0.0000
  35 C35         -4.5088     5.0451     0.5887 C.ar         1    LIG   0.0000
  36 H            5.0153    -1.0517     1.0232 H            1    LIG   0.0000
  37 H           -6.7676     6.0815     1.2163 H            1    LIG   0.0000
  38 H           -7.6366     4.7351     0.9018 H            1    LIG   0.0000
  39 H           -7.0874     5.0178     2.4134 H            1    LIG   0.0000
  40 H           -6.3208     2.5084     1.7212 H            1    LIG   0.0000
  41 H           -4.3056     1.3124     1.2153 H            1    LIG   0.0000
  42 H           -1.5295     2.6811    -0.5587 H            1    LIG   0.0000
  43 H           -2.2202     1.2921    -0.0487 H            1    LIG   0.0000
  44 H           -1.2461     3.0587     1.9585 H            1    LIG   0.0000
  45 H           -1.2881     1.4265     1.9842 H            1    LIG   0.0000
  46 H            0.7698     3.0231     0.6825 H            1    LIG   0.0000
  47 H            2.6640    -1.0449     1.0222 H            1    LIG   0.0000
  48 H            7.1039     0.0516     1.0109 H            1    LIG   0.0000
  49 H            8.3785     2.0752     0.9898 H            1    LIG   0.0000
  50 H            9.5292     4.8973     2.2046 H            1    LIG   0.0000
  51 H            6.2924     6.1749     2.8311 H            1    LIG   0.0000
  52 H            4.5712     6.7476     5.9925 H            1    LIG   0.0000
  53 H            4.9517     7.6493     4.6853 H            1    LIG   0.0000
  54 H            4.1423     6.2432     4.4997 H            1    LIG   0.0000
  55 H            6.3531     5.5941     6.9450 H            1    LIG   0.0000
  56 H            8.1129     4.4444     7.9642 H            1    LIG   0.0000
  57 H            8.7592     3.2427     7.0672 H            1    LIG   0.0000
  58 H            9.5688     4.6486     7.2534 H            1    LIG   0.0000
  59 H            9.4462     4.1223     4.5931 H            1    LIG   0.0000
  60 H            4.8754     4.2662     0.9656 H            1    LIG   0.0000
  61 H           -2.5466     4.8428    -0.0835 H            1    LIG   0.0000
  62 H           -4.5666     6.0297     0.4238 H            1    LIG   0.0000
@<TRIPOS>BOND
   1        1        2 1
   2        2        3 ar
   3        3        4 ar
   4        4        5 ar
   5        5        6 1
   6        6        7 1
   7        7        8 1
   8        8        9 am
   9        9       10 2
  10        9       11 1
  11       11       12 2
  12       12       13 1
  13       13       14 1
  14       14       15 ar
  15       15       16 ar
  16       16       17 ar
  17       17       18 1
  18       18       19 2
  19       18       20 2
  20       18       21 1
  21       21       22 1
  22       22       23 ar
  23       23       24 ar
  24       24       25 1
  25       24       26 ar
  26       26       27 ar
  27       27       28 1
  28       27       29 ar
  29       29       22 ar
  30       17       30 ar
  31       30       31 ar
  32       31       14 ar
  33       31       32 1
  34       32       11 1
  35       32       33 2
  36        5       34 ar
  37       34       35 ar
  38       35        2 ar
  39       13       36 1
  40        1       37 1
  41        1       38 1
  42        1       39 1
  43        3       40 1
  44        4       41 1
  45        6       42 1
  46        6       43 1
  47        7       44 1
  48        7       45 1
  49        8       46 1
  50       12       47 1
  51       15       48 1
  52       16       49 1
  53       21       50 1
  54       23       51 1
  55       25       52 1
  56       25       53 1
  57       25       54 1
  58       26       55 1
  59       28       56 1
  60       28       57 1
  61       28       58 1
  62       29       59 1
  63       30       60 1
  64       34       61 1
  65       35       62 1

@<TRIPOS>MOLECULE

  62   65
SMALL
USER_CHARGES
@<TRIPOS>ATOM
   1 C1          -6.7264    -0.7832    -0.4870 C.3          1    LIG   0.0000
   2 C2          -5.4841    -0.1198     0.0863 C.ar         1    LIG   0.0000
   3 C3          -4.9735     1.0218    -0.5210 C.ar         1    LIG   0.0000
   4 C4          -3.8368     1.6354    -0.0047 C.ar         1    LIG   0.0000
   5 C5          -3.2251     1.0925     1.1204 C.ar         1    LIG   0.0000
   6 C6          -1.9838     1.7589     1.6902 C.3          1    LIG   0.0000
   7 C7          -1.0885     2.2202     0.5517 C.3          1    LIG   0.0000
   8 N8           0.3150     2.1864     0.9875 N.am         1    LIG   0.0000
   9 C9           1.0000     1.0000     1.0000 C.2          1    LIG   0.0000
  10 O10          0.4000    -0.0392     1.0109 O.2          1    LIG   0.0000
  11 C11          2.4506     1.0000     1.0000 C.2          1    LIG   0.0000
  12 C12          3.1573    -0.1751     1.0130 C.2          1    LIG   0.0000
  13 N13          4.5284    -0.1783     1.0135 N.pl3        1    LIG   0.0000
  14 C14          5.2469     0.9896     1.0011 C.ar         1    LIG   0.0000
  15 C15          6.6375     0.9361     1.0015 C.ar         1    LIG   0.0000
  16 C16          7.3792     2.1137     0.9890 C.ar         1    LIG   0.0000
  17 C17          6.7302     3.3448     0.9754 C.ar         1    LIG   0.0000
  18 S18          7.5974     4.8529     0.9585 S.o2         1    LIG   0.0000
  19 O19          8.4250     4.9175    -0.2182 O.2          1    LIG   0.0000
  20 O20          6.6597     5.9457     0.9463 O.2          1    LIG   0.0000
  21 N21          8.5344     4.9558     2.2882 N.pl3        1    LIG   0.0000
  22 C22          7.9860     4.7070     3.5519 C.ar         1    LIG   0.0000
  23 C23          7.0736     3.6687     3.7050 C.ar         1    LIG   0.0000
  24 C24          6.5332     3.4305     4.9641 C.ar         1    LIG   0.0000
  25 C25          5.5355     2.2994     5.1501 C.3          1    LIG   0.0000
  26 C26          6.8905     4.2089     6.0602 C.ar         1    LIG   0.0000
  27 C27          7.8053     5.2408     5.8797 C.ar         1    LIG   0.0000
  28 C28          8.2073     6.1028     7.0649 C.3          1    LIG   0.0000
  29 C29          8.3605     5.5007     4.6312 C.ar         1    LIG   0.0000
  30 C30          5.3414     3.3815     0.9752 C.ar         1    LIG   0.0000
  31 C31          4.5845     2.2129     0.9879 C.ar         1    LIG   0.0000
  32 C32          3.1615     2.2306     0.9871 C.2          1    LIG   0.0000
  33 O33          2.5228     3.2728     0.9760 O.2          1    LIG   0.0000
  34 C34         -3.7286    -0.0492     1.7354 C.ar         1    LIG   0.0000
  35 C35         -4.8660    -0.6551     1.2121 C.ar         1    LIG   0.0000
  36 H            5.0153    -1.0517     1.0232 H            1    LIG   0.0000
  37 H           -6.9597    -1.5853     0.0627 H            1    LIG   0.0000
  38 H           -7.4879    -0.1352    -0.4709 H            1    LIG   0.0000
  39 H           -6.5487    -1.0653    -1.4297 H            1    LIG   0.0000
  40 H           -5.4234     1.4020    -1.3291 H            1    LIG   0.0000
  41 H           -3.4640     2.4564    -0.4370 H            1    LIG   0.0000
  42 H           -1.4869     1.1054     2.2612 H            1    LIG   0.0000
  43 H           -2.2529     2.5475     2.2432 H            1    LIG   0.0000
  44 H           -1.2084     1.6129    -0.2336 H            1    LIG   0.0000
  45 H           -1.3344     3.1540     0.2917 H            1    LIG   0.0000
  46 H            0.7698     3.0294     1.2749 H            1    LIG   0.0000
  47 H            2.6640    -1.0449     1.0222 H            1    LIG   0.0000
  48 H            7.1039     0.0516     1.0109 H            1    LIG   0.0000
  49 H            8.3785     2.0752     0.9898 H            1    LIG   0.0000
  50 H            9.5011     5.1967     2.2013 H            1    LIG   0.0000
  51 H            6.8106     3.1032     2.9233 H            1    LIG   0.0000
  52 H            5.2466     2.2636     6.1068 H            1    LIG   0.0000
  53 H            4.7388     2.4584     4.5670 H            1    LIG   0.0000
  54 H            5.9646     1.4318     4.8988 H            1    LIG   0.0000
  55 H            6.4967     4.0298     6.9617 H            1    LIG   0.0000
  56 H            7.7245     5.7906     7.8832 H            1    LIG   0.0000
  57 H            9.1937     6.0291     7.2114 H            1    LIG   0.0000
  58 H            7.9681     7.0560     6.8802 H            1    LIG   0.0000
  59 H            9.0174     6.2451     4.5115 H            1    LIG   0.0000
  60 H            4.8754     4.2662     0.9656 H            1    LIG   0.0000
  61 H           -3.2785    -0.4294     2.5434 H            1    LIG   0.0000
  62 H           -5.2395    -1.4755     1.6451 H            1    LIG   0.0000
@<TRIPOS>BOND
   1        1        2 1
   2        2        3 ar
   3        3        4 ar
   4        4        5 ar
   5        5        6 1
   6        6        7 1
   7        7        8 1
   8        8        9 am
   9        9       10 2
  10        9       11 1
  11       11       12 2
  12       12       13 1
  13       13       14 1
  14       14       15 ar
  15       15       16 ar
  16       16       17 ar
  17       17       18 1
  18       18       19 2
  19       18       20 2
  20       18       21 1
  21       21       22 1
  22       22       23 ar
  23       23       24 ar
  24       24       25 1
  25       24       26 ar
  26       26       27 ar
  27       27       28 1
  28       27       29 ar
  29       29       22 ar
  30       17       30 ar
  31       30       31 ar
  32       31       14 ar
  33       31       32 1
  34       32       11 1
  35       32       33 2
  36        5       34 ar
  37       34       35 ar
  38       35        2 ar
  39       13       36 1
  40        1       37 1
  41        1       38 1
  42        1       39 1
  43        3       40 1
  44        4       41 1
  45        6       42 1
  46        6       43 1
  47        7       44 1
  48        7       45 1
  49        8       46 1
  50       12       47 1
  51       15       48 1
  52       16       49 1
  53       21       50 1
  54       23       51 1
  55       25       52 1
  56       25       53 1
  57       25       54 1
  58       26       55 1
  59       28       56 1
  60       28       57 1
  61       28       58 1
  62       29       59 1
  63       30       60 1
  64       34       61 1
  65       35       62 1

