@<TRIPOS>MOLECULE
*****
 62 65 0 0 0
SMALL
USER_CHARGES

@<TRIPOS>ATOM
      1 C1         -5.5818    3.8425   -3.8145 C.3     1  LIG1        0.0000
      2 C2         -4.4380    3.2282   -3.0229 C.3     1  LIG1        0.0000
      3 C3         -4.5738    3.0440   -1.6515 C.3     1  LIG1        0.0000
      4 C4         -3.5326    2.4838   -0.9184 C.3     1  LIG1        0.0000
      5 C5         -2.3636    2.1137   -1.5750 C.3     1  LIG1        0.0000
      6 C6         -1.2230    1.4999   -0.7800 C.3     1  LIG1        0.0000
      7 C7         -1.0885    2.2202    0.5517 C.3     1  LIG1        0.0000
      8 N8          0.3150    2.1864    0.9875 N.am    1  LIG1        0.0000
      9 C9          1.0000    1.0000    1.0000 C.2     1  LIG1        0.0000
     10 O10         0.4000   -0.0392    1.0109 O.2     1  LIG1        0.0000
     11 C11         2.4506    1.0000    1.0000 C.2     1  LIG1        0.0000
     12 C12         3.1573   -0.1751    1.0130 C.2     1  LIG1        0.0000
     13 N13         4.5284   -0.1783    1.0135 N.pl3   1  LIG1        0.0000
     14 C14         5.2469    0.9896    1.0011 C.3     1  LIG1        0.0000
     15 C15         6.6375    0.9361    1.0015 C.3     1  LIG1        0.0000
     16 C16         7.3792    2.1137    0.9890 C.3     1  LIG1        0.0000
     17 C17         6.7302    3.3448    0.9754 C.3     1  LIG1        0.0000
     18 S18         7.5974    4.8529    0.9585 S.O2    1  LIG1        0.0000
     19 O19         8.8558    4.6754    0.2815 O.2     1  LIG1        0.0000
     20 O20         6.8173    5.8474    0.2685 O.2     1  LIG1        0.0000
     21 N21         7.8683    5.3411    2.4898 N.pl3   1  LIG1        0.0000
     22 C22         8.7774    4.6456    3.2957 C.3     1  LIG1        0.0000
     23 C23        10.1395    4.8832    3.1458 C.3     1  LIG1        0.0000
     24 C24        11.0346    4.1861    3.9501 C.3     1  LIG1        0.0000
     25 C25        12.5266    4.4339    3.8007 C.3     1  LIG1        0.0000
     26 C26        10.5895    3.2649    4.8924 C.3     1  LIG1        0.0000
     27 C27         9.2221    3.0463    5.0222 C.3     1  LIG1        0.0000
     28 C28         8.7166    2.0429    6.0454 C.3     1  LIG1        0.0000
     29 C29         8.3054    3.7297    4.2302 C.3     1  LIG1        0.0000
     30 C30         5.3414    3.3815    0.9752 C.3     1  LIG1        0.0000
     31 C31         4.5845    2.2129    0.9879 C.3     1  LIG1        0.0000
     32 C32         3.1615    2.2306    0.9871 C.2     1  LIG1        0.0000
     33 O33         2.5228    3.2728    0.9760 O.2     1  LIG1        0.0000
     34 C34        -2.2184    2.2937   -2.9467 C.3     1  LIG1        0.0000
     35 C35        -3.2652    2.8539   -3.6712 C.3     1  LIG1        0.0000
     36 H           5.0153   -1.0517    1.0232 H       1  LIG1        0.0000
     37 H          -5.3242    3.9047   -4.7787 H       1  LIG1        0.0000
     38 H          -6.3960    3.2691   -3.7233 H       1  LIG1        0.0000
     39 H          -5.7774    4.7577   -3.4620 H       1  LIG1        0.0000
     40 H          -5.4199    3.3141   -1.1921 H       1  LIG1        0.0000
     41 H          -3.6235    2.3490    0.0682 H       1  LIG1        0.0000
     42 H          -0.3709    1.5903   -1.2954 H       1  LIG1        0.0000
     43 H          -1.4132    0.5316   -0.6175 H       1  LIG1        0.0000
     44 H          -1.3825    3.1704    0.4480 H       1  LIG1        0.0000
     45 H          -1.6608    1.7670    1.2352 H       1  LIG1        0.0000
     46 H           0.7698    3.0294    1.2749 H       1  LIG1        0.0000
     47 H           2.6640   -1.0449    1.0222 H       1  LIG1        0.0000
     48 H           7.1039    0.0516    1.0109 H       1  LIG1        0.0000
     49 H           8.3785    2.0752    0.9898 H       1  LIG1        0.0000
     50 H           7.3851    6.1375    2.8537 H       1  LIG1        0.0000
     51 H          10.4695    5.5438    2.4715 H       1  LIG1        0.0000
     52 H          13.0265    3.8577    4.4473 H       1  LIG1        0.0000
     53 H          12.8097    4.2112    2.8679 H       1  LIG1        0.0000
     54 H          12.7252    5.3957    3.9887 H       1  LIG1        0.0000
     55 H          11.2409    2.7686    5.4663 H       1  LIG1        0.0000
     56 H           9.4934    1.6404    6.5297 H       1  LIG1        0.0000
     57 H           8.1196    2.5065    6.7001 H       1  LIG1        0.0000
     58 H           8.2040    1.3215    5.5798 H       1  LIG1        0.0000
     59 H           7.3241    3.5655    4.3309 H       1  LIG1        0.0000
     60 H           4.8754    4.2662    0.9656 H       1  LIG1        0.0000
     61 H          -1.3722    2.0237   -3.4060 H       1  LIG1        0.0000
     62 H          -3.1748    2.9877   -4.6581 H       1  LIG1        0.0000
@<TRIPOS>BOND
     1     1     2    1
     2     2     3   ar
     3     3     4   ar
     4     4     5   ar
     5     5     6    1
     6     6     7    1
     7     7     8    1
     8     8     9   am
     9     9    10    2
    10     9    11    1
    11    11    12    2
    12    12    13    1
    13    13    14    1
    14    14    15   ar
    15    15    16   ar
    16    16    17   ar
    17    17    18    1
    18    18    19    2
    19    18    20    2
    20    18    21    1
    21    21    22    1
    22    22    23   ar
    23    23    24   ar
    24    24    25    1
    25    24    26   ar
    26    26    27   ar
    27    27    28    1
    28    27    29   ar
    29    29    22   ar
    30    17    30   ar
    31    30    31   ar
    32    31    14   ar
    33    31    32    1
    34    32    11    1
    35    32    33    2
    36     5    34   ar
    37    34    35   ar
    38    35     2   ar
    39    13    36    1
    40     1    37    1
    41     1    38    1
    42     1    39    1
    43     3    40    1
    44     4    41    1
    45     6    42    1
    46     6    43    1
    47     7    44    1
    48     7    45    1
    49     8    46    1
    50    12    47    1
    51    15    48    1
    52    16    49    1
    53    21    50    1
    54    23    51    1
    55    25    52    1
    56    25    53    1
    57    25    54    1
    58    26    55    1
    59    28    56    1
    60    28    57    1
    61    28    58    1
    62    29    59    1
    63    30    60    1
    64    34    61    1
    65    35    62    1
