@<TRIPOS>MOLECULE
*****
 62 65 0 0 0
SMALL
USER_CHARGES

@<TRIPOS>ATOM
      1 C1         -7.1158    0.1098    2.4589 C.3     1  LIG1        0.0000
      2 C2         -5.7729    0.5415    1.8910 C.3     1  LIG1        0.0000
      3 C3         -4.7431   -0.3863    1.7834 C.3     1  LIG1        0.0000
      4 C4         -3.5106   -0.0008    1.2662 C.3     1  LIG1        0.0000
      5 C5         -3.3275    1.3172    0.8612 C.3     1  LIG1        0.0000
      6 C6         -1.9838    1.7443    0.2940 C.3     1  LIG1        0.0000
      7 C7         -1.0885    2.2293    1.4225 C.3     1  LIG1        0.0000
      8 N8          0.3150    2.1864    0.9875 N.am    1  LIG1        0.0000
      9 C9          1.0000    1.0000    1.0000 C.2     1  LIG1        0.0000
     10 O10         0.4000   -0.0392    1.0109 O.2     1  LIG1        0.0000
     11 C11         2.4506    1.0000    1.0000 C.2     1  LIG1        0.0000
     12 C12         3.1573   -0.1751    1.0130 C.2     1  LIG1        0.0000
     13 N13         4.5284   -0.1783    1.0135 N.pl3   1  LIG1        0.0000
     14 C14         5.2469    0.9896    1.0011 C.3     1  LIG1        0.0000
     15 C15         6.6375    0.9361    1.0015 C.3     1  LIG1        0.0000
     16 C16         7.3792    2.1137    0.9890 C.3     1  LIG1        0.0000
     17 C17         6.7302    3.3448    0.9754 C.3     1  LIG1        0.0000
     18 S18         7.5974    4.8529    0.9585 S.O2    1  LIG1        0.0000
     19 O19         8.8558    4.6754    0.2815 O.2     1  LIG1        0.0000
     20 O20         6.8173    5.8474    0.2685 O.2     1  LIG1        0.0000
     21 N21         7.8683    5.3411    2.4898 N.pl3   1  LIG1        0.0000
     22 C22         6.8134    5.3797    3.4092 C.3     1  LIG1        0.0000
     23 C23         6.8878    4.6065    4.5628 C.3     1  LIG1        0.0000
     24 C24         5.8340    4.6506    5.4692 C.3     1  LIG1        0.0000
     25 C25         5.8989    3.8130    6.7356 C.3     1  LIG1        0.0000
     26 C26         4.7191    5.4499    5.2391 C.3     1  LIG1        0.0000
     27 C27         4.6700    6.2135    4.0778 C.3     1  LIG1        0.0000
     28 C28         3.4598    7.0923    3.8083 C.3     1  LIG1        0.0000
     29 C29         5.7101    6.1877    3.1546 C.3     1  LIG1        0.0000
     30 C30         5.3414    3.3815    0.9752 C.3     1  LIG1        0.0000
     31 C31         4.5845    2.2129    0.9879 C.3     1  LIG1        0.0000
     32 C32         3.1615    2.2306    0.9871 C.2     1  LIG1        0.0000
     33 O33         2.5228    3.2728    0.9760 O.2     1  LIG1        0.0000
     34 C34        -4.3518    2.2527    0.9646 C.3     1  LIG1        0.0000
     35 C35        -5.5808    1.8577    1.4824 C.3     1  LIG1        0.0000
     36 H           5.0153   -1.0517    1.0232 H       1  LIG1        0.0000
     37 H          -7.7406    0.8906    2.4675 H       1  LIG1        0.0000
     38 H          -7.4996   -0.6180    1.8906 H       1  LIG1        0.0000
     39 H          -6.9903   -0.2269    3.3921 H       1  LIG1        0.0000
     40 H          -4.8884   -1.3309    2.0778 H       1  LIG1        0.0000
     41 H          -2.7655   -0.6630    1.1865 H       1  LIG1        0.0000
     42 H          -2.1201    2.4841   -0.3649 H       1  LIG1        0.0000
     43 H          -1.5524    0.9663   -0.1628 H       1  LIG1        0.0000
     44 H          -1.3344    3.1684    1.6629 H       1  LIG1        0.0000
     45 H          -1.2084    1.6387    2.2205 H       1  LIG1        0.0000
     46 H           0.7698    3.0231    0.6825 H       1  LIG1        0.0000
     47 H           2.6640   -1.0449    1.0222 H       1  LIG1        0.0000
     48 H           7.1039    0.0516    1.0109 H       1  LIG1        0.0000
     49 H           8.3785    2.0752    0.9898 H       1  LIG1        0.0000
     50 H           8.7882    5.6131    2.7726 H       1  LIG1        0.0000
     51 H           7.6852    4.0289    4.7375 H       1  LIG1        0.0000
     52 H           5.0689    3.9583    7.2742 H       1  LIG1        0.0000
     53 H           5.9732    2.8459    6.4923 H       1  LIG1        0.0000
     54 H           6.6971    4.0837    7.2737 H       1  LIG1        0.0000
     55 H           3.9664    5.4750    5.8970 H       1  LIG1        0.0000
     56 H           2.8068    6.9999    4.5600 H       1  LIG1        0.0000
     57 H           3.7504    8.0463    3.7346 H       1  LIG1        0.0000
     58 H           3.0259    6.8089    2.9531 H       1  LIG1        0.0000
     59 H           5.6654    6.7403    2.3224 H       1  LIG1        0.0000
     60 H           4.8754    4.2662    0.9656 H       1  LIG1        0.0000
     61 H          -4.2064    3.1973    0.6703 H       1  LIG1        0.0000
     62 H          -6.3263    2.5195    1.5610 H       1  LIG1        0.0000
@<TRIPOS>BOND
     1     1     2    1
     2     2     3   ar
     3     3     4   ar
     4     4     5   ar
     5     5     6    1
     6     6     7    1
     7     7     8    1
     8     8     9   am
     9     9    10    2
    10     9    11    1
    11    11    12    2
    12    12    13    1
    13    13    14    1
    14    14    15   ar
    15    15    16   ar
    16    16    17   ar
    17    17    18    1
    18    18    19    2
    19    18    20    2
    20    18    21    1
    21    21    22    1
    22    22    23   ar
    23    23    24   ar
    24    24    25    1
    25    24    26   ar
    26    26    27   ar
    27    27    28    1
    28    27    29   ar
    29    29    22   ar
    30    17    30   ar
    31    30    31   ar
    32    31    14   ar
    33    31    32    1
    34    32    11    1
    35    32    33    2
    36     5    34   ar
    37    34    35   ar
    38    35     2   ar
    39    13    36    1
    40     1    37    1
    41     1    38    1
    42     1    39    1
    43     3    40    1
    44     4    41    1
    45     6    42    1
    46     6    43    1
    47     7    44    1
    48     7    45    1
    49     8    46    1
    50    12    47    1
    51    15    48    1
    52    16    49    1
    53    21    50    1
    54    23    51    1
    55    25    52    1
    56    25    53    1
    57    25    54    1
    58    26    55    1
    59    28    56    1
    60    28    57    1
    61    28    58    1
    62    29    59    1
    63    30    60    1
    64    34    61    1
    65    35    62    1
