@<TRIPOS>MOLECULE
*****
 62 65 0 0 0
SMALL
USER_CHARGES

@<TRIPOS>ATOM
      1 C1         -6.8830    5.1135    1.4392 C.3     1  LIG1        0.0000
      2 C2         -5.6015    4.3623    1.1141 C.3     1  LIG1        0.0000
      3 C3         -5.5313    2.9931    1.3446 C.3     1  LIG1        0.0000
      4 C4         -4.3629    2.2972    1.0514 C.3     1  LIG1        0.0000
      5 C5         -3.2755    2.9883    0.5275 C.3     1  LIG1        0.0000
      6 C6         -1.9968    2.2335    0.2037 C.3     1  LIG1        0.0000
      7 C7         -1.0885    2.2293    1.4225 C.3     1  LIG1        0.0000
      8 N8          0.3150    2.1864    0.9875 N.am    1  LIG1        0.0000
      9 C9          1.0000    1.0000    1.0000 C.2     1  LIG1        0.0000
     10 O10         0.4000   -0.0392    1.0109 O.2     1  LIG1        0.0000
     11 C11         2.4506    1.0000    1.0000 C.2     1  LIG1        0.0000
     12 C12         3.1573   -0.1751    1.0130 C.2     1  LIG1        0.0000
     13 N13         4.5284   -0.1783    1.0135 N.pl3   1  LIG1        0.0000
     14 C14         5.2469    0.9896    1.0011 C.3     1  LIG1        0.0000
     15 C15         6.6375    0.9361    1.0015 C.3     1  LIG1        0.0000
     16 C16         7.3792    2.1137    0.9890 C.3     1  LIG1        0.0000
     17 C17         6.7302    3.3448    0.9754 C.3     1  LIG1        0.0000
     18 S18         7.5974    4.8529    0.9585 S.O2    1  LIG1        0.0000
     19 O19         8.4250    4.9175   -0.2182 O.2     1  LIG1        0.0000
     20 O20         6.6597    5.9457    0.9463 O.2     1  LIG1        0.0000
     21 N21         8.5344    4.9558    2.2882 N.pl3   1  LIG1        0.0000
     22 C22         7.9466    5.1262    3.5472 C.3     1  LIG1        0.0000
     23 C23         6.7393    5.8091    3.6475 C.3     1  LIG1        0.0000
     24 C24         6.1642    5.9744    4.9028 C.3     1  LIG1        0.0000
     25 C25         4.8445    6.7171    5.0311 C.3     1  LIG1        0.0000
     26 C26         6.7745    5.4703    6.0467 C.3     1  LIG1        0.0000
     27 C27         7.9813    4.7911    5.9185 C.3     1  LIG1        0.0000
     28 C28         8.6639    4.2341    7.1567 C.3     1  LIG1        0.0000
     29 C29         8.5782    4.6121    4.6749 C.3     1  LIG1        0.0000
     30 C30         5.3414    3.3815    0.9752 C.3     1  LIG1        0.0000
     31 C31         4.5845    2.2129    0.9879 C.3     1  LIG1        0.0000
     32 C32         3.1615    2.2306    0.9871 C.2     1  LIG1        0.0000
     33 O33         2.5228    3.2728    0.9760 O.2     1  LIG1        0.0000
     34 C34        -3.3361    4.3581    0.2930 C.3     1  LIG1        0.0000
     35 C35        -4.5088    5.0451    0.5887 C.3     1  LIG1        0.0000
     36 H           5.0153   -1.0517    1.0232 H       1  LIG1        0.0000
     37 H          -6.7676    6.0815    1.2163 H       1  LIG1        0.0000
     38 H          -7.6366    4.7351    0.9018 H       1  LIG1        0.0000
     39 H          -7.0874    5.0178    2.4134 H       1  LIG1        0.0000
     40 H          -6.3208    2.5084    1.7212 H       1  LIG1        0.0000
     41 H          -4.3056    1.3124    1.2153 H       1  LIG1        0.0000
     42 H          -1.5295    2.6811   -0.5587 H       1  LIG1        0.0000
     43 H          -2.2202    1.2921   -0.0487 H       1  LIG1        0.0000
     44 H          -1.2461    3.0587    1.9585 H       1  LIG1        0.0000
     45 H          -1.2881    1.4265    1.9842 H       1  LIG1        0.0000
     46 H           0.7698    3.0231    0.6825 H       1  LIG1        0.0000
     47 H           2.6640   -1.0449    1.0222 H       1  LIG1        0.0000
     48 H           7.1039    0.0516    1.0109 H       1  LIG1        0.0000
     49 H           8.3785    2.0752    0.9898 H       1  LIG1        0.0000
     50 H           9.5292    4.8973    2.2046 H       1  LIG1        0.0000
     51 H           6.2924    6.1749    2.8311 H       1  LIG1        0.0000
     52 H           4.5712    6.7476    5.9925 H       1  LIG1        0.0000
     53 H           4.9517    7.6493    4.6853 H       1  LIG1        0.0000
     54 H           4.1423    6.2432    4.4997 H       1  LIG1        0.0000
     55 H           6.3531    5.5941    6.9450 H       1  LIG1        0.0000
     56 H           8.1129    4.4444    7.9642 H       1  LIG1        0.0000
     57 H           8.7592    3.2427    7.0672 H       1  LIG1        0.0000
     58 H           9.5688    4.6486    7.2534 H       1  LIG1        0.0000
     59 H           9.4462    4.1223    4.5931 H       1  LIG1        0.0000
     60 H           4.8754    4.2662    0.9656 H       1  LIG1        0.0000
     61 H          -2.5466    4.8428   -0.0835 H       1  LIG1        0.0000
     62 H          -4.5666    6.0297    0.4238 H       1  LIG1        0.0000
@<TRIPOS>BOND
     1     1     2    1
     2     2     3   ar
     3     3     4   ar
     4     4     5   ar
     5     5     6    1
     6     6     7    1
     7     7     8    1
     8     8     9   am
     9     9    10    2
    10     9    11    1
    11    11    12    2
    12    12    13    1
    13    13    14    1
    14    14    15   ar
    15    15    16   ar
    16    16    17   ar
    17    17    18    1
    18    18    19    2
    19    18    20    2
    20    18    21    1
    21    21    22    1
    22    22    23   ar
    23    23    24   ar
    24    24    25    1
    25    24    26   ar
    26    26    27   ar
    27    27    28    1
    28    27    29   ar
    29    29    22   ar
    30    17    30   ar
    31    30    31   ar
    32    31    14   ar
    33    31    32    1
    34    32    11    1
    35    32    33    2
    36     5    34   ar
    37    34    35   ar
    38    35     2   ar
    39    13    36    1
    40     1    37    1
    41     1    38    1
    42     1    39    1
    43     3    40    1
    44     4    41    1
    45     6    42    1
    46     6    43    1
    47     7    44    1
    48     7    45    1
    49     8    46    1
    50    12    47    1
    51    15    48    1
    52    16    49    1
    53    21    50    1
    54    23    51    1
    55    25    52    1
    56    25    53    1
    57    25    54    1
    58    26    55    1
    59    28    56    1
    60    28    57    1
    61    28    58    1
    62    29    59    1
    63    30    60    1
    64    34    61    1
    65    35    62    1
