@<TRIPOS>MOLECULE
*****
 62 65 0 0 0
SMALL
USER_CHARGES

@<TRIPOS>ATOM
      1 C1         -6.7271   -0.7843   -0.4842 C.3     1  LIG1        0.0000
      2 C2         -5.4829   -0.1216    0.0857 C.3     1  LIG1        0.0000
      3 C3         -5.4853    1.2470    0.3306 C.3     1  LIG1        0.0000
      4 C4         -4.3515    1.8627    0.8508 C.3     1  LIG1        0.0000
      5 C5         -3.2251    1.0925    1.1204 C.3     1  LIG1        0.0000
      6 C6         -1.9838    1.7589    1.6902 C.3     1  LIG1        0.0000
      7 C7         -1.0885    2.2202    0.5517 C.3     1  LIG1        0.0000
      8 N8          0.3150    2.1864    0.9875 N.am    1  LIG1        0.0000
      9 C9          1.0000    1.0000    1.0000 C.2     1  LIG1        0.0000
     10 O10         0.4000   -0.0392    1.0109 O.2     1  LIG1        0.0000
     11 C11         2.4506    1.0000    1.0000 C.2     1  LIG1        0.0000
     12 C12         3.1573   -0.1751    1.0130 C.2     1  LIG1        0.0000
     13 N13         4.5284   -0.1783    1.0135 N.pl3   1  LIG1        0.0000
     14 C14         5.2469    0.9896    1.0011 C.3     1  LIG1        0.0000
     15 C15         6.6375    0.9361    1.0015 C.3     1  LIG1        0.0000
     16 C16         7.3792    2.1137    0.9890 C.3     1  LIG1        0.0000
     17 C17         6.7302    3.3448    0.9754 C.3     1  LIG1        0.0000
     18 S18         7.5974    4.8529    0.9585 S.O2    1  LIG1        0.0000
     19 O19         8.8558    4.6754    0.2815 O.2     1  LIG1        0.0000
     20 O20         6.8173    5.8474    0.2685 O.2     1  LIG1        0.0000
     21 N21         7.8683    5.3411    2.4898 N.pl3   1  LIG1        0.0000
     22 C22         6.9874    6.2387    3.1046 C.3     1  LIG1        0.0000
     23 C23         6.6324    7.4071    2.4389 C.3     1  LIG1        0.0000
     24 C24         5.7578    8.2930    3.0587 C.3     1  LIG1        0.0000
     25 C25         5.3581    9.5742    2.3456 C.3     1  LIG1        0.0000
     26 C26         5.2390    8.0278    4.3218 C.3     1  LIG1        0.0000
     27 C27         5.6100    6.8521    4.9654 C.3     1  LIG1        0.0000
     28 C28         5.0545    6.5454    6.3463 C.3     1  LIG1        0.0000
     29 C29         6.4833    5.9491    4.3683 C.3     1  LIG1        0.0000
     30 C30         5.3414    3.3815    0.9752 C.3     1  LIG1        0.0000
     31 C31         4.5845    2.2129    0.9879 C.3     1  LIG1        0.0000
     32 C32         3.1615    2.2306    0.9871 C.2     1  LIG1        0.0000
     33 O33         2.5228    3.2728    0.9760 O.2     1  LIG1        0.0000
     34 C34        -3.2131   -0.2775    0.8792 C.3     1  LIG1        0.0000
     35 C35        -4.3517   -0.8841    0.3595 C.3     1  LIG1        0.0000
     36 H           5.0153   -1.0517    1.0232 H       1  LIG1        0.0000
     37 H          -6.5602   -1.7635   -0.5995 H       1  LIG1        0.0000
     38 H          -7.4941   -0.6485    0.1430 H       1  LIG1        0.0000
     39 H          -6.9454   -0.3767   -1.3709 H       1  LIG1        0.0000
     40 H          -6.3021    1.7889    0.1326 H       1  LIG1        0.0000
     41 H          -4.3463    2.8467    1.0288 H       1  LIG1        0.0000
     42 H          -1.4869    1.1054    2.2612 H       1  LIG1        0.0000
     43 H          -2.2529    2.5475    2.2432 H       1  LIG1        0.0000
     44 H          -1.2084    1.6129   -0.2336 H       1  LIG1        0.0000
     45 H          -1.3344    3.1540    0.2917 H       1  LIG1        0.0000
     46 H           0.7698    3.0294    1.2749 H       1  LIG1        0.0000
     47 H           2.6640   -1.0449    1.0222 H       1  LIG1        0.0000
     48 H           7.1039    0.0516    1.0109 H       1  LIG1        0.0000
     49 H           8.3785    2.0752    0.9898 H       1  LIG1        0.0000
     50 H           8.6639    4.9995    2.9902 H       1  LIG1        0.0000
     51 H           6.9996    7.6066    1.5305 H       1  LIG1        0.0000
     52 H           4.7294   10.0949    2.9232 H       1  LIG1        0.0000
     53 H           6.1742   10.1223    2.1626 H       1  LIG1        0.0000
     54 H           4.9076    9.3483    1.4819 H       1  LIG1        0.0000
     55 H           4.6106    8.6711    4.7593 H       1  LIG1        0.0000
     56 H           4.4472    7.2861    6.6334 H       1  LIG1        0.0000
     57 H           4.5423    5.6870    6.3164 H       1  LIG1        0.0000
     58 H           5.8086    6.4611    6.9977 H       1  LIG1        0.0000
     59 H           6.7442    5.1064    4.8392 H       1  LIG1        0.0000
     60 H           4.8754    4.2662    0.9656 H       1  LIG1        0.0000
     61 H          -2.3961   -0.8192    1.0770 H       1  LIG1        0.0000
     62 H          -4.3573   -1.8683    0.1827 H       1  LIG1        0.0000
@<TRIPOS>BOND
     1     1     2    1
     2     2     3   ar
     3     3     4   ar
     4     4     5   ar
     5     5     6    1
     6     6     7    1
     7     7     8    1
     8     8     9   am
     9     9    10    2
    10     9    11    1
    11    11    12    2
    12    12    13    1
    13    13    14    1
    14    14    15   ar
    15    15    16   ar
    16    16    17   ar
    17    17    18    1
    18    18    19    2
    19    18    20    2
    20    18    21    1
    21    21    22    1
    22    22    23   ar
    23    23    24   ar
    24    24    25    1
    25    24    26   ar
    26    26    27   ar
    27    27    28    1
    28    27    29   ar
    29    29    22   ar
    30    17    30   ar
    31    30    31   ar
    32    31    14   ar
    33    31    32    1
    34    32    11    1
    35    32    33    2
    36     5    34   ar
    37    34    35   ar
    38    35     2   ar
    39    13    36    1
    40     1    37    1
    41     1    38    1
    42     1    39    1
    43     3    40    1
    44     4    41    1
    45     6    42    1
    46     6    43    1
    47     7    44    1
    48     7    45    1
    49     8    46    1
    50    12    47    1
    51    15    48    1
    52    16    49    1
    53    21    50    1
    54    23    51    1
    55    25    52    1
    56    25    53    1
    57    25    54    1
    58    26    55    1
    59    28    56    1
    60    28    57    1
    61    28    58    1
    62    29    59    1
    63    30    60    1
    64    34    61    1
    65    35    62    1
