@<TRIPOS>MOLECULE
*****
 62 65 0 0 0
SMALL
USER_CHARGES

@<TRIPOS>ATOM
      1 C1         -6.8746   -0.0688   -1.2315 C.3     1  LIG1        0.0000
      2 C2         -5.5750    0.2956   -0.5311 C.3     1  LIG1        0.0000
      3 C3         -5.5866    0.5883    0.8280 C.3     1  LIG1        0.0000
      4 C4         -4.4031    0.9238    1.4775 C.3     1  LIG1        0.0000
      5 C5         -3.2177    0.9605    0.7507 C.3     1  LIG1        0.0000
      6 C6         -1.9212    1.3249    1.4548 C.3     1  LIG1        0.0000
      7 C7         -1.0885    2.2202    0.5517 C.3     1  LIG1        0.0000
      8 N8          0.3150    2.1864    0.9875 N.am    1  LIG1        0.0000
      9 C9          1.0000    1.0000    1.0000 C.2     1  LIG1        0.0000
     10 O10         0.4000   -0.0392    1.0109 O.2     1  LIG1        0.0000
     11 C11         2.4506    1.0000    1.0000 C.2     1  LIG1        0.0000
     12 C12         3.1573   -0.1751    1.0130 C.2     1  LIG1        0.0000
     13 N13         4.5284   -0.1783    1.0135 N.pl3   1  LIG1        0.0000
     14 C14         5.2469    0.9896    1.0011 C.3     1  LIG1        0.0000
     15 C15         6.6375    0.9361    1.0015 C.3     1  LIG1        0.0000
     16 C16         7.3792    2.1137    0.9890 C.3     1  LIG1        0.0000
     17 C17         6.7302    3.3448    0.9754 C.3     1  LIG1        0.0000
     18 S18         7.5974    4.8529    0.9585 S.O2    1  LIG1        0.0000
     19 O19         8.8558    4.6754    0.2815 O.2     1  LIG1        0.0000
     20 O20         6.8173    5.8474    0.2685 O.2     1  LIG1        0.0000
     21 N21         7.8683    5.3411    2.4898 N.pl3   1  LIG1        0.0000
     22 C22         9.0357    4.9465    3.1541 C.3     1  LIG1        0.0000
     23 C23         8.9336    4.2095    4.3291 C.3     1  LIG1        0.0000
     24 C24        10.0991    3.8236    4.9823 C.3     1  LIG1        0.0000
     25 C25        10.0065    3.0169    6.2670 C.3     1  LIG1        0.0000
     26 C26        11.3516    4.1613    4.4804 C.3     1  LIG1        0.0000
     27 C27        11.4256    4.8986    3.3036 C.3     1  LIG1        0.0000
     28 C28        12.7850    5.2782    2.7402 C.3     1  LIG1        0.0000
     29 C29        10.2756    5.2977    2.6305 C.3     1  LIG1        0.0000
     30 C30         5.3414    3.3815    0.9752 C.3     1  LIG1        0.0000
     31 C31         4.5845    2.2129    0.9879 C.3     1  LIG1        0.0000
     32 C32         3.1615    2.2306    0.9871 C.2     1  LIG1        0.0000
     33 O33         2.5228    3.2728    0.9760 O.2     1  LIG1        0.0000
     34 C34        -3.1958    0.6689   -0.6093 C.3     1  LIG1        0.0000
     35 C35        -4.3842    0.3339   -1.2497 C.3     1  LIG1        0.0000
     36 H           5.0153   -1.0517    1.0232 H       1  LIG1        0.0000
     37 H          -6.6931   -0.2487   -2.1983 H       1  LIG1        0.0000
     38 H          -7.2638   -0.8866   -0.8076 H       1  LIG1        0.0000
     39 H          -7.5215    0.6893   -1.1492 H       1  LIG1        0.0000
     40 H          -6.4458    0.5576    1.3387 H       1  LIG1        0.0000
     41 H          -4.4045    1.1359    2.4547 H       1  LIG1        0.0000
     42 H          -1.4088    0.4915    1.6621 H       1  LIG1        0.0000
     43 H          -2.1282    1.8090    2.3050 H       1  LIG1        0.0000
     44 H          -1.1526    1.8943   -0.3915 H       1  LIG1        0.0000
     45 H          -1.4314    3.1581    0.6044 H       1  LIG1        0.0000
     46 H           0.7698    3.0294    1.2749 H       1  LIG1        0.0000
     47 H           2.6640   -1.0449    1.0222 H       1  LIG1        0.0000
     48 H           7.1039    0.0516    1.0109 H       1  LIG1        0.0000
     49 H           8.3785    2.0752    0.9898 H       1  LIG1        0.0000
     50 H           7.2007    5.9226    2.9548 H       1  LIG1        0.0000
     51 H           8.0378    3.9614    4.6978 H       1  LIG1        0.0000
     52 H          10.9271    2.8230    6.6059 H       1  LIG1        0.0000
     53 H           9.5019    3.5402    6.9536 H       1  LIG1        0.0000
     54 H           9.5296    2.1566    6.0867 H       1  LIG1        0.0000
     55 H          12.1841    3.8790    4.9573 H       1  LIG1        0.0000
     56 H          13.5043    4.9196    3.3351 H       1  LIG1        0.0000
     57 H          12.8861    4.8905    1.8239 H       1  LIG1        0.0000
     58 H          12.8590    6.2742    2.6907 H       1  LIG1        0.0000
     59 H          10.3391    5.8278    1.7850 H       1  LIG1        0.0000
     60 H           4.8754    4.2662    0.9656 H       1  LIG1        0.0000
     61 H          -2.3366    0.6997   -1.1199 H       1  LIG1        0.0000
     62 H          -4.3827    0.1205   -2.2267 H       1  LIG1        0.0000
@<TRIPOS>BOND
     1     1     2    1
     2     2     3   ar
     3     3     4   ar
     4     4     5   ar
     5     5     6    1
     6     6     7    1
     7     7     8    1
     8     8     9   am
     9     9    10    2
    10     9    11    1
    11    11    12    2
    12    12    13    1
    13    13    14    1
    14    14    15   ar
    15    15    16   ar
    16    16    17   ar
    17    17    18    1
    18    18    19    2
    19    18    20    2
    20    18    21    1
    21    21    22    1
    22    22    23   ar
    23    23    24   ar
    24    24    25    1
    25    24    26   ar
    26    26    27   ar
    27    27    28    1
    28    27    29   ar
    29    29    22   ar
    30    17    30   ar
    31    30    31   ar
    32    31    14   ar
    33    31    32    1
    34    32    11    1
    35    32    33    2
    36     5    34   ar
    37    34    35   ar
    38    35     2   ar
    39    13    36    1
    40     1    37    1
    41     1    38    1
    42     1    39    1
    43     3    40    1
    44     4    41    1
    45     6    42    1
    46     6    43    1
    47     7    44    1
    48     7    45    1
    49     8    46    1
    50    12    47    1
    51    15    48    1
    52    16    49    1
    53    21    50    1
    54    23    51    1
    55    25    52    1
    56    25    53    1
    57    25    54    1
    58    26    55    1
    59    28    56    1
    60    28    57    1
    61    28    58    1
    62    29    59    1
    63    30    60    1
    64    34    61    1
    65    35    62    1
