@<TRIPOS>MOLECULE
*****
 62 65 0 0 0
SMALL
USER_CHARGES

@<TRIPOS>ATOM
      1 C1         -6.6892    2.4273    4.6609 C.3     1  LIG1        0.0000
      2 C2         -5.2376    2.3782    4.2108 C.3     1  LIG1        0.0000
      3 C3         -4.5480    3.5645    3.9870 C.3     1  LIG1        0.0000
      4 C4         -3.2201    3.5300    3.5740 C.3     1  LIG1        0.0000
      5 C5         -2.5988    2.2992    3.3909 C.3     1  LIG1        0.0000
      6 C6         -1.1477    2.2548    2.9412 C.3     1  LIG1        0.0000
      7 C7         -1.0885    2.2293    1.4225 C.3     1  LIG1        0.0000
      8 N8          0.3150    2.1864    0.9875 N.am    1  LIG1        0.0000
      9 C9          1.0000    1.0000    1.0000 C.2     1  LIG1        0.0000
     10 O10         0.4000   -0.0392    1.0109 O.2     1  LIG1        0.0000
     11 C11         2.4506    1.0000    1.0000 C.2     1  LIG1        0.0000
     12 C12         3.1573   -0.1751    1.0130 C.2     1  LIG1        0.0000
     13 N13         4.5284   -0.1783    1.0135 N.pl3   1  LIG1        0.0000
     14 C14         5.2469    0.9896    1.0011 C.3     1  LIG1        0.0000
     15 C15         6.6375    0.9361    1.0015 C.3     1  LIG1        0.0000
     16 C16         7.3792    2.1137    0.9890 C.3     1  LIG1        0.0000
     17 C17         6.7302    3.3448    0.9754 C.3     1  LIG1        0.0000
     18 S18         7.5974    4.8529    0.9585 S.O2    1  LIG1        0.0000
     19 O19         8.8558    4.6754    0.2815 O.2     1  LIG1        0.0000
     20 O20         6.8173    5.8474    0.2685 O.2     1  LIG1        0.0000
     21 N21         7.8683    5.3411    2.4898 N.pl3   1  LIG1        0.0000
     22 C22         6.8022    5.7813    3.2832 C.3     1  LIG1        0.0000
     23 C23         5.5838    5.1141    3.2163 C.3     1  LIG1        0.0000
     24 C24         4.5304    5.5600    4.0072 C.3     1  LIG1        0.0000
     25 C25         3.1922    4.8423    3.9477 C.3     1  LIG1        0.0000
     26 C26         4.6788    6.6525    4.8553 C.3     1  LIG1        0.0000
     27 C27         5.9079    7.3016    4.9034 C.3     1  LIG1        0.0000
     28 C28         6.0891    8.4978    5.8230 C.3     1  LIG1        0.0000
     29 C29         6.9776    6.8765    4.1226 C.3     1  LIG1        0.0000
     30 C30         5.3414    3.3815    0.9752 C.3     1  LIG1        0.0000
     31 C31         4.5845    2.2129    0.9879 C.3     1  LIG1        0.0000
     32 C32         3.1615    2.2306    0.9871 C.2     1  LIG1        0.0000
     33 O33         2.5228    3.2728    0.9760 O.2     1  LIG1        0.0000
     34 C34        -3.2801    1.1068    3.6125 C.3     1  LIG1        0.0000
     35 C35        -4.6074    1.1515    4.0259 C.3     1  LIG1        0.0000
     36 H           5.0153   -1.0517    1.0232 H       1  LIG1        0.0000
     37 H          -7.0343    1.4958    4.7756 H       1  LIG1        0.0000
     38 H          -6.7520    2.9156    5.5313 H       1  LIG1        0.0000
     39 H          -7.2360    2.9028    3.9718 H       1  LIG1        0.0000
     40 H          -5.0066    4.4427    4.1230 H       1  LIG1        0.0000
     41 H          -2.7184    4.3796    3.4108 H       1  LIG1        0.0000
     42 H          -0.7108    1.4324    3.3056 H       1  LIG1        0.0000
     43 H          -0.6688    3.0647    3.2799 H       1  LIG1        0.0000
     44 H          -1.5674    1.4195    1.0838 H       1  LIG1        0.0000
     45 H          -1.5254    3.0517    1.0581 H       1  LIG1        0.0000
     46 H           0.7698    3.0231    0.6825 H       1  LIG1        0.0000
     47 H           2.6640   -1.0449    1.0222 H       1  LIG1        0.0000
     48 H           7.1039    0.0516    1.0109 H       1  LIG1        0.0000
     49 H           8.3785    2.0752    0.9898 H       1  LIG1        0.0000
     50 H           8.7961    5.3262    2.8626 H       1  LIG1        0.0000
     51 H           5.4672    4.3274    2.6100 H       1  LIG1        0.0000
     52 H           2.5485    5.2850    4.5720 H       1  LIG1        0.0000
     53 H           2.8334    4.8828    3.0152 H       1  LIG1        0.0000
     54 H           3.3140    3.8869    4.2168 H       1  LIG1        0.0000
     55 H           3.9155    6.9656    5.4204 H       1  LIG1        0.0000
     56 H           5.2349    8.6749    6.3118 H       1  LIG1        0.0000
     57 H           6.8162    8.3046    6.4818 H       1  LIG1        0.0000
     58 H           6.3355    9.3010    5.2805 H       1  LIG1        0.0000
     59 H           7.8575    7.3499    4.1641 H       1  LIG1        0.0000
     60 H           4.8754    4.2662    0.9656 H       1  LIG1        0.0000
     61 H          -2.8215    0.2287    3.4763 H       1  LIG1        0.0000
     62 H          -5.1088    0.3021    4.1902 H       1  LIG1        0.0000
@<TRIPOS>BOND
     1     1     2    1
     2     2     3   ar
     3     3     4   ar
     4     4     5   ar
     5     5     6    1
     6     6     7    1
     7     7     8    1
     8     8     9   am
     9     9    10    2
    10     9    11    1
    11    11    12    2
    12    12    13    1
    13    13    14    1
    14    14    15   ar
    15    15    16   ar
    16    16    17   ar
    17    17    18    1
    18    18    19    2
    19    18    20    2
    20    18    21    1
    21    21    22    1
    22    22    23   ar
    23    23    24   ar
    24    24    25    1
    25    24    26   ar
    26    26    27   ar
    27    27    28    1
    28    27    29   ar
    29    29    22   ar
    30    17    30   ar
    31    30    31   ar
    32    31    14   ar
    33    31    32    1
    34    32    11    1
    35    32    33    2
    36     5    34   ar
    37    34    35   ar
    38    35     2   ar
    39    13    36    1
    40     1    37    1
    41     1    38    1
    42     1    39    1
    43     3    40    1
    44     4    41    1
    45     6    42    1
    46     6    43    1
    47     7    44    1
    48     7    45    1
    49     8    46    1
    50    12    47    1
    51    15    48    1
    52    16    49    1
    53    21    50    1
    54    23    51    1
    55    25    52    1
    56    25    53    1
    57    25    54    1
    58    26    55    1
    59    28    56    1
    60    28    57    1
    61    28    58    1
    62    29    59    1
    63    30    60    1
    64    34    61    1
    65    35    62    1
