@<TRIPOS>MOLECULE
*****
 62 65 0 0 0
SMALL
USER_CHARGES

@<TRIPOS>ATOM
      1 C1         -6.7264   -0.7832   -0.4870 C.3     1  LIG1        0.0000
      2 C2         -5.4841   -0.1198    0.0863 C.3     1  LIG1        0.0000
      3 C3         -4.9735    1.0218   -0.5210 C.3     1  LIG1        0.0000
      4 C4         -3.8368    1.6354   -0.0047 C.3     1  LIG1        0.0000
      5 C5         -3.2251    1.0925    1.1204 C.3     1  LIG1        0.0000
      6 C6         -1.9838    1.7589    1.6902 C.3     1  LIG1        0.0000
      7 C7         -1.0885    2.2202    0.5517 C.3     1  LIG1        0.0000
      8 N8          0.3150    2.1864    0.9875 N.am    1  LIG1        0.0000
      9 C9          1.0000    1.0000    1.0000 C.2     1  LIG1        0.0000
     10 O10         0.4000   -0.0392    1.0109 O.2     1  LIG1        0.0000
     11 C11         2.4506    1.0000    1.0000 C.2     1  LIG1        0.0000
     12 C12         3.1573   -0.1751    1.0130 C.2     1  LIG1        0.0000
     13 N13         4.5284   -0.1783    1.0135 N.pl3   1  LIG1        0.0000
     14 C14         5.2469    0.9896    1.0011 C.3     1  LIG1        0.0000
     15 C15         6.6375    0.9361    1.0015 C.3     1  LIG1        0.0000
     16 C16         7.3792    2.1137    0.9890 C.3     1  LIG1        0.0000
     17 C17         6.7302    3.3448    0.9754 C.3     1  LIG1        0.0000
     18 S18         7.5974    4.8529    0.9585 S.O2    1  LIG1        0.0000
     19 O19         8.4250    4.9175   -0.2182 O.2     1  LIG1        0.0000
     20 O20         6.6597    5.9457    0.9463 O.2     1  LIG1        0.0000
     21 N21         8.5344    4.9558    2.2882 N.pl3   1  LIG1        0.0000
     22 C22         7.9860    4.7070    3.5519 C.3     1  LIG1        0.0000
     23 C23         7.0736    3.6687    3.7050 C.3     1  LIG1        0.0000
     24 C24         6.5332    3.4305    4.9641 C.3     1  LIG1        0.0000
     25 C25         5.5355    2.2994    5.1501 C.3     1  LIG1        0.0000
     26 C26         6.8905    4.2089    6.0602 C.3     1  LIG1        0.0000
     27 C27         7.8053    5.2408    5.8797 C.3     1  LIG1        0.0000
     28 C28         8.2073    6.1028    7.0649 C.3     1  LIG1        0.0000
     29 C29         8.3605    5.5007    4.6312 C.3     1  LIG1        0.0000
     30 C30         5.3414    3.3815    0.9752 C.3     1  LIG1        0.0000
     31 C31         4.5845    2.2129    0.9879 C.3     1  LIG1        0.0000
     32 C32         3.1615    2.2306    0.9871 C.2     1  LIG1        0.0000
     33 O33         2.5228    3.2728    0.9760 O.2     1  LIG1        0.0000
     34 C34        -3.7286   -0.0492    1.7354 C.3     1  LIG1        0.0000
     35 C35        -4.8660   -0.6551    1.2121 C.3     1  LIG1        0.0000
     36 H           5.0153   -1.0517    1.0232 H       1  LIG1        0.0000
     37 H          -6.9597   -1.5853    0.0627 H       1  LIG1        0.0000
     38 H          -7.4879   -0.1352   -0.4709 H       1  LIG1        0.0000
     39 H          -6.5487   -1.0653   -1.4297 H       1  LIG1        0.0000
     40 H          -5.4234    1.4020   -1.3291 H       1  LIG1        0.0000
     41 H          -3.4640    2.4564   -0.4370 H       1  LIG1        0.0000
     42 H          -1.4869    1.1054    2.2612 H       1  LIG1        0.0000
     43 H          -2.2529    2.5475    2.2432 H       1  LIG1        0.0000
     44 H          -1.2084    1.6129   -0.2336 H       1  LIG1        0.0000
     45 H          -1.3344    3.1540    0.2917 H       1  LIG1        0.0000
     46 H           0.7698    3.0294    1.2749 H       1  LIG1        0.0000
     47 H           2.6640   -1.0449    1.0222 H       1  LIG1        0.0000
     48 H           7.1039    0.0516    1.0109 H       1  LIG1        0.0000
     49 H           8.3785    2.0752    0.9898 H       1  LIG1        0.0000
     50 H           9.5011    5.1967    2.2013 H       1  LIG1        0.0000
     51 H           6.8106    3.1032    2.9233 H       1  LIG1        0.0000
     52 H           5.2466    2.2636    6.1068 H       1  LIG1        0.0000
     53 H           4.7388    2.4584    4.5670 H       1  LIG1        0.0000
     54 H           5.9646    1.4318    4.8988 H       1  LIG1        0.0000
     55 H           6.4967    4.0298    6.9617 H       1  LIG1        0.0000
     56 H           7.7245    5.7906    7.8832 H       1  LIG1        0.0000
     57 H           9.1937    6.0291    7.2114 H       1  LIG1        0.0000
     58 H           7.9681    7.0560    6.8802 H       1  LIG1        0.0000
     59 H           9.0174    6.2451    4.5115 H       1  LIG1        0.0000
     60 H           4.8754    4.2662    0.9656 H       1  LIG1        0.0000
     61 H          -3.2785   -0.4294    2.5434 H       1  LIG1        0.0000
     62 H          -5.2395   -1.4755    1.6451 H       1  LIG1        0.0000
@<TRIPOS>BOND
     1     1     2    1
     2     2     3   ar
     3     3     4   ar
     4     4     5   ar
     5     5     6    1
     6     6     7    1
     7     7     8    1
     8     8     9   am
     9     9    10    2
    10     9    11    1
    11    11    12    2
    12    12    13    1
    13    13    14    1
    14    14    15   ar
    15    15    16   ar
    16    16    17   ar
    17    17    18    1
    18    18    19    2
    19    18    20    2
    20    18    21    1
    21    21    22    1
    22    22    23   ar
    23    23    24   ar
    24    24    25    1
    25    24    26   ar
    26    26    27   ar
    27    27    28    1
    28    27    29   ar
    29    29    22   ar
    30    17    30   ar
    31    30    31   ar
    32    31    14   ar
    33    31    32    1
    34    32    11    1
    35    32    33    2
    36     5    34   ar
    37    34    35   ar
    38    35     2   ar
    39    13    36    1
    40     1    37    1
    41     1    38    1
    42     1    39    1
    43     3    40    1
    44     4    41    1
    45     6    42    1
    46     6    43    1
    47     7    44    1
    48     7    45    1
    49     8    46    1
    50    12    47    1
    51    15    48    1
    52    16    49    1
    53    21    50    1
    54    23    51    1
    55    25    52    1
    56    25    53    1
    57    25    54    1
    58    26    55    1
    59    28    56    1
    60    28    57    1
    61    28    58    1
    62    29    59    1
    63    30    60    1
    64    34    61    1
    65    35    62    1
