@<TRIPOS>MOLECULE

  58   61
SMALL
USER_CHARGES
@<TRIPOS>ATOM
   1 C1          -3.5408     6.7322     1.9044 C.3          1    LIG   0.0000
   2 C2          -3.4000     5.2197     1.8508 C.2          1    LIG   0.0000
   3 O3          -4.3707     4.5319     1.6942 O.2          1    LIG   0.0000
   4 N4          -2.1647     4.6417     1.9813 N.am         1    LIG   0.0000
   5 C5          -1.8910     3.4241     1.3468 C.ar         1    LIG   0.0000
   6 C6          -2.8805     2.8099     0.5858 C.ar         1    LIG   0.0000
   7 C7          -2.5973     1.6004    -0.0396 C.ar         1    LIG   0.0000
   8 C8          -1.3455     1.0079     0.0881 C.ar         1    LIG   0.0000
   9 C9          -0.3711     1.6397     0.8537 C.ar         1    LIG   0.0000
  10 C10          1.0000     1.0000     1.0000 C.3          1    LIG   0.0000
  11 N11          1.8482     1.8482     1.8482 N.am         1    LIG   0.0000
  12 C12          2.4662     2.9796     1.3254 C.2          1    LIG   0.0000
  13 C13          2.3892     3.4252     0.0834 C.2          1    LIG   0.0000
  14 C14          1.5552     2.6756    -0.9427 C.2          1    LIG   0.0000
  15 O15          0.4543     3.0642    -1.2206 O.2          1    LIG   0.0000
  16 C16          2.0897     1.4908    -1.5858 C.ar         1    LIG   0.0000
  17 C17          1.2041     0.4979    -1.9897 C.ar         1    LIG   0.0000
  18 C18          1.6829    -0.6514    -2.6099 C.ar         1    LIG   0.0000
  19 C19          3.0488    -0.8081    -2.8259 C.ar         1    LIG   0.0000
  20 C20          3.9353     0.1851    -2.4223 C.ar         1    LIG   0.0000
  21 C21          3.4564     1.3345    -1.8021 C.ar         1    LIG   0.0000
  22 C22          4.4533     2.3997    -1.3740 C.3          1    LIG   0.0000
  23 S23          3.3708     3.7213     2.6057 S.3          1    LIG   0.0000
  24 C24          2.9518     2.5762     3.8353 C.2          1    LIG   0.0000
  25 C25          3.3406     2.5839     5.0970 C.2          1    LIG   0.0000
  26 C26          2.8942     1.5399     5.9999 C.2          1    LIG   0.0000
  27 C27          3.6734     0.6597     6.6890 C.2          1    LIG   0.0000
  28 C28          2.9131    -0.2376     7.4891 C.2          1    LIG   0.0000
  29 C29          1.5628    -0.0756     7.4400 C.2          1    LIG   0.0000
  30 C30          0.5203    -0.8893     8.1892 C.3          1    LIG   0.0000
  31 S31          1.2643     1.2192     6.3731 S.3          1    LIG   0.0000
  32 C32          2.0895     1.6068     3.2001 C.2          1    LIG   0.0000
  33 O33          1.6169     0.6526     3.7975 O.2          1    LIG   0.0000
  34 C34         -0.6325     2.8494     1.4884 C.ar         1    LIG   0.0000
  35 H           -2.6406     7.1463     2.0391 H            1    LIG   0.0000
  36 H           -3.9339     7.0610     1.0457 H            1    LIG   0.0000
  37 H           -4.1407     6.9844     2.6637 H            1    LIG   0.0000
  38 H           -1.4586     5.0896     2.5298 H            1    LIG   0.0000
  39 H           -3.7821     3.2318     0.4900 H            1    LIG   0.0000
  40 H           -3.3026     1.1511    -0.5880 H            1    LIG   0.0000
  41 H           -1.1484     0.1385    -0.3649 H            1    LIG   0.0000
  42 H            0.9038     0.0980     1.4209 H            1    LIG   0.0000
  43 H            1.4209     0.9038     0.0980 H            1    LIG   0.0000
  44 H            2.8797     4.2556    -0.1812 H            1    LIG   0.0000
  45 H            0.2227     0.6101    -1.8342 H            1    LIG   0.0000
  46 H            1.0456    -1.3651    -2.9007 H            1    LIG   0.0000
  47 H            3.3930    -1.6347    -3.2712 H            1    LIG   0.0000
  48 H            4.9167     0.0727    -2.5779 H            1    LIG   0.0000
  49 H            5.3786     2.1059    -1.6138 H            1    LIG   0.0000
  50 H            4.2446     3.2587    -1.8416 H            1    LIG   0.0000
  51 H            4.3923     2.5351    -0.3851 H            1    LIG   0.0000
  52 H            3.9428     3.3094     5.4302 H            1    LIG   0.0000
  53 H            4.6720     0.6460     6.6377 H            1    LIG   0.0000
  54 H            3.3437    -0.9430     8.0521 H            1    LIG   0.0000
  55 H            0.9762    -1.5854     8.7439 H            1    LIG   0.0000
  56 H           -0.0106    -0.2848     8.7832 H            1    LIG   0.0000
  57 H           -0.0906    -1.3330     7.5335 H            1    LIG   0.0000
  58 H            0.0725     3.2984     2.0373 H            1    LIG   0.0000
@<TRIPOS>BOND
   1        1        2 1
   2        2        3 2
   3        2        4 am
   4        4        5 1
   5        5        6 ar
   6        6        7 ar
   7        7        8 ar
   8        8        9 ar
   9        9       10 1
  10       10       11 1
  11       11       12 1
  12       12       13 2
  13       13       14 1
  14       14       15 2
  15       14       16 1
  16       16       17 ar
  17       17       18 ar
  18       18       19 ar
  19       19       20 ar
  20       20       21 ar
  21       21       16 ar
  22       21       22 1
  23       12       23 1
  24       23       24 1
  25       24       25 2
  26       25       26 1
  27       26       27 2
  28       27       28 1
  29       28       29 2
  30       29       30 1
  31       29       31 1
  32       31       26 1
  33       24       32 1
  34       32       11 am
  35       32       33 2
  36        9       34 ar
  37       34        5 ar
  38        1       35 1
  39        1       36 1
  40        1       37 1
  41        4       38 1
  42        6       39 1
  43        7       40 1
  44        8       41 1
  45       10       42 1
  46       10       43 1
  47       13       44 1
  48       17       45 1
  49       18       46 1
  50       19       47 1
  51       20       48 1
  52       22       49 1
  53       22       50 1
  54       22       51 1
  55       25       52 1
  56       27       53 1
  57       28       54 1
  58       30       55 1
  59       30       56 1
  60       30       57 1
  61       34       58 1

@<TRIPOS>MOLECULE

  58   61
SMALL
USER_CHARGES
@<TRIPOS>ATOM
   1 C1          -6.0433     0.6729    -1.1401 C.3          1    LIG   0.0000
   2 C2          -4.8159     1.5470    -0.9405 C.2          1    LIG   0.0000
   3 O3          -4.9297     2.7409    -0.8996 O.2          1    LIG   0.0000
   4 N4          -3.5797     0.9718    -0.8074 N.am         1    LIG   0.0000
   5 C5          -2.5937     1.6016    -0.0385 C.ar         1    LIG   0.0000
   6 C6          -2.8800     2.8111     0.5863 C.ar         1    LIG   0.0000
   7 C7          -1.8926     3.4278     1.3473 C.ar         1    LIG   0.0000
   8 C8          -0.6355     2.8496     1.4872 C.ar         1    LIG   0.0000
   9 C9          -0.3711     1.6397     0.8537 C.ar         1    LIG   0.0000
  10 C10          1.0000     1.0000     1.0000 C.3          1    LIG   0.0000
  11 N11          1.8482     1.8482     1.8482 N.am         1    LIG   0.0000
  12 C12          2.4662     2.9796     1.3254 C.2          1    LIG   0.0000
  13 C13          2.3892     3.4252     0.0834 C.2          1    LIG   0.0000
  14 C14          1.5552     2.6756    -0.9427 C.2          1    LIG   0.0000
  15 O15          0.4543     3.0642    -1.2206 O.2          1    LIG   0.0000
  16 C16          2.0897     1.4908    -1.5858 C.ar         1    LIG   0.0000
  17 C17          1.2041     0.4979    -1.9897 C.ar         1    LIG   0.0000
  18 C18          1.6829    -0.6514    -2.6099 C.ar         1    LIG   0.0000
  19 C19          3.0488    -0.8081    -2.8259 C.ar         1    LIG   0.0000
  20 C20          3.9353     0.1851    -2.4223 C.ar         1    LIG   0.0000
  21 C21          3.4564     1.3345    -1.8021 C.ar         1    LIG   0.0000
  22 C22          4.4533     2.3997    -1.3740 C.3          1    LIG   0.0000
  23 S23          3.3708     3.7213     2.6057 S.3          1    LIG   0.0000
  24 C24          2.9518     2.5762     3.8353 C.2          1    LIG   0.0000
  25 C25          3.3406     2.5839     5.0970 C.2          1    LIG   0.0000
  26 C26          2.8942     1.5399     5.9999 C.2          1    LIG   0.0000
  27 C27          3.6734     0.6597     6.6890 C.2          1    LIG   0.0000
  28 C28          2.9131    -0.2376     7.4891 C.2          1    LIG   0.0000
  29 C29          1.5628    -0.0756     7.4400 C.2          1    LIG   0.0000
  30 C30          0.5203    -0.8893     8.1892 C.3          1    LIG   0.0000
  31 S31          1.2643     1.2192     6.3731 S.3          1    LIG   0.0000
  32 C32          2.0895     1.6068     3.2001 C.2          1    LIG   0.0000
  33 O33          1.6169     0.6526     3.7975 O.2          1    LIG   0.0000
  34 C34         -1.3434     1.0057     0.0875 C.ar         1    LIG   0.0000
  35 H           -5.7697    -0.2889    -1.1495 H            1    LIG   0.0000
  36 H           -6.6886     0.8286    -0.3921 H            1    LIG   0.0000
  37 H           -6.4793     0.9040    -2.0099 H            1    LIG   0.0000
  38 H           -3.3816     0.1020    -1.2594 H            1    LIG   0.0000
  39 H           -3.7824     3.2310     0.4898 H            1    LIG   0.0000
  40 H           -2.0890     4.2978     1.7996 H            1    LIG   0.0000
  41 H            0.0697     3.2981     2.0365 H            1    LIG   0.0000
  42 H            0.9038     0.0980     1.4209 H            1    LIG   0.0000
  43 H            1.4209     0.9038     0.0980 H            1    LIG   0.0000
  44 H            2.8797     4.2556    -0.1812 H            1    LIG   0.0000
  45 H            0.2227     0.6101    -1.8342 H            1    LIG   0.0000
  46 H            1.0456    -1.3651    -2.9007 H            1    LIG   0.0000
  47 H            3.3930    -1.6347    -3.2712 H            1    LIG   0.0000
  48 H            4.9167     0.0727    -2.5779 H            1    LIG   0.0000
  49 H            5.3786     2.1059    -1.6138 H            1    LIG   0.0000
  50 H            4.2446     3.2587    -1.8416 H            1    LIG   0.0000
  51 H            4.3923     2.5351    -0.3851 H            1    LIG   0.0000
  52 H            3.9428     3.3094     5.4302 H            1    LIG   0.0000
  53 H            4.6720     0.6460     6.6377 H            1    LIG   0.0000
  54 H            3.3437    -0.9430     8.0521 H            1    LIG   0.0000
  55 H            0.9762    -1.5854     8.7439 H            1    LIG   0.0000
  56 H           -0.0106    -0.2848     8.7832 H            1    LIG   0.0000
  57 H           -0.0906    -1.3330     7.5335 H            1    LIG   0.0000
  58 H           -1.1467     0.1360    -0.3652 H            1    LIG   0.0000
@<TRIPOS>BOND
   1        1        2 1
   2        2        3 2
   3        2        4 am
   4        4        5 1
   5        5        6 ar
   6        6        7 ar
   7        7        8 ar
   8        8        9 ar
   9        9       10 1
  10       10       11 1
  11       11       12 1
  12       12       13 2
  13       13       14 1
  14       14       15 2
  15       14       16 1
  16       16       17 ar
  17       17       18 ar
  18       18       19 ar
  19       19       20 ar
  20       20       21 ar
  21       21       16 ar
  22       21       22 1
  23       12       23 1
  24       23       24 1
  25       24       25 2
  26       25       26 1
  27       26       27 2
  28       27       28 1
  29       28       29 2
  30       29       30 1
  31       29       31 1
  32       31       26 1
  33       24       32 1
  34       32       11 am
  35       32       33 2
  36        9       34 ar
  37       34        5 ar
  38        1       35 1
  39        1       36 1
  40        1       37 1
  41        4       38 1
  42        6       39 1
  43        7       40 1
  44        8       41 1
  45       10       42 1
  46       10       43 1
  47       13       44 1
  48       17       45 1
  49       18       46 1
  50       19       47 1
  51       20       48 1
  52       22       49 1
  53       22       50 1
  54       22       51 1
  55       25       52 1
  56       27       53 1
  57       28       54 1
  58       30       55 1
  59       30       56 1
  60       30       57 1
  61       34       58 1

@<TRIPOS>MOLECULE

  58   61
SMALL
USER_CHARGES
@<TRIPOS>ATOM
   1 C1          -3.5408     6.7322     1.9044 C.3          1    LIG   0.0000
   2 C2          -3.4000     5.2197     1.8508 C.2          1    LIG   0.0000
   3 O3          -4.3707     4.5319     1.6942 O.2          1    LIG   0.0000
   4 N4          -2.1647     4.6417     1.9813 N.am         1    LIG   0.0000
   5 C5          -1.8910     3.4241     1.3468 C.ar         1    LIG   0.0000
   6 C6          -2.8805     2.8099     0.5858 C.ar         1    LIG   0.0000
   7 C7          -2.5973     1.6004    -0.0396 C.ar         1    LIG   0.0000
   8 C8          -1.3455     1.0079     0.0881 C.ar         1    LIG   0.0000
   9 C9          -0.3711     1.6397     0.8537 C.ar         1    LIG   0.0000
  10 C10          1.0000     1.0000     1.0000 C.3          1    LIG   0.0000
  11 N11          1.8482     1.8482     1.8482 N.am         1    LIG   0.0000
  12 C12          2.4662     2.9796     1.3254 C.2          1    LIG   0.0000
  13 C13          2.3892     3.4252     0.0834 C.2          1    LIG   0.0000
  14 C14          1.5552     2.6756    -0.9427 C.2          1    LIG   0.0000
  15 O15          0.3580     2.6772    -0.8595 O.2          1    LIG   0.0000
  16 C16          2.2061     1.9585    -2.0221 C.ar         1    LIG   0.0000
  17 C17          3.5948     1.9771    -2.0889 C.ar         1    LIG   0.0000
  18 C18          4.2516     1.2996    -3.1109 C.ar         1    LIG   0.0000
  19 C19          3.5187     0.6034    -4.0674 C.ar         1    LIG   0.0000
  20 C20          2.1293     0.5842    -4.0010 C.ar         1    LIG   0.0000
  21 C21          1.4726     1.2617    -2.9788 C.ar         1    LIG   0.0000
  22 C22         -0.0467     1.2196    -2.9365 C.3          1    LIG   0.0000
  23 S23          3.3708     3.7213     2.6057 S.3          1    LIG   0.0000
  24 C24          2.9518     2.5762     3.8353 C.2          1    LIG   0.0000
  25 C25          3.3406     2.5839     5.0970 C.2          1    LIG   0.0000
  26 C26          2.8942     1.5399     5.9999 C.2          1    LIG   0.0000
  27 C27          3.6734     0.6597     6.6890 C.2          1    LIG   0.0000
  28 C28          2.9131    -0.2376     7.4891 C.2          1    LIG   0.0000
  29 C29          1.5628    -0.0756     7.4400 C.2          1    LIG   0.0000
  30 C30          0.5203    -0.8893     8.1892 C.3          1    LIG   0.0000
  31 S31          1.2643     1.2192     6.3731 S.3          1    LIG   0.0000
  32 C32          2.0895     1.6068     3.2001 C.2          1    LIG   0.0000
  33 O33          1.6169     0.6526     3.7975 O.2          1    LIG   0.0000
  34 C34         -0.6325     2.8494     1.4884 C.ar         1    LIG   0.0000
  35 H           -2.6406     7.1463     2.0391 H            1    LIG   0.0000
  36 H           -3.9339     7.0610     1.0457 H            1    LIG   0.0000
  37 H           -4.1407     6.9844     2.6637 H            1    LIG   0.0000
  38 H           -1.4586     5.0896     2.5298 H            1    LIG   0.0000
  39 H           -3.7821     3.2318     0.4900 H            1    LIG   0.0000
  40 H           -3.3026     1.1511    -0.5880 H            1    LIG   0.0000
  41 H           -1.1484     0.1385    -0.3649 H            1    LIG   0.0000
  42 H            0.9038     0.0980     1.4209 H            1    LIG   0.0000
  43 H            1.4209     0.9038     0.0980 H            1    LIG   0.0000
  44 H            2.8797     4.2556    -0.1812 H            1    LIG   0.0000
  45 H            4.1216     2.4777    -1.4019 H            1    LIG   0.0000
  46 H            5.2503     1.3129    -3.1584 H            1    LIG   0.0000
  47 H            3.9909     0.1169    -4.8025 H            1    LIG   0.0000
  48 H            1.6027     0.0835    -4.6880 H            1    LIG   0.0000
  49 H           -0.3864     0.6734    -3.7022 H            1    LIG   0.0000
  50 H           -0.3449     0.8080    -2.0753 H            1    LIG   0.0000
  51 H           -0.4079     2.1496    -3.0042 H            1    LIG   0.0000
  52 H            3.9428     3.3094     5.4302 H            1    LIG   0.0000
  53 H            4.6720     0.6460     6.6377 H            1    LIG   0.0000
  54 H            3.3437    -0.9430     8.0521 H            1    LIG   0.0000
  55 H            0.9762    -1.5854     8.7439 H            1    LIG   0.0000
  56 H           -0.0106    -0.2848     8.7832 H            1    LIG   0.0000
  57 H           -0.0906    -1.3330     7.5335 H            1    LIG   0.0000
  58 H            0.0725     3.2984     2.0373 H            1    LIG   0.0000
@<TRIPOS>BOND
   1        1        2 1
   2        2        3 2
   3        2        4 am
   4        4        5 1
   5        5        6 ar
   6        6        7 ar
   7        7        8 ar
   8        8        9 ar
   9        9       10 1
  10       10       11 1
  11       11       12 1
  12       12       13 2
  13       13       14 1
  14       14       15 2
  15       14       16 1
  16       16       17 ar
  17       17       18 ar
  18       18       19 ar
  19       19       20 ar
  20       20       21 ar
  21       21       16 ar
  22       21       22 1
  23       12       23 1
  24       23       24 1
  25       24       25 2
  26       25       26 1
  27       26       27 2
  28       27       28 1
  29       28       29 2
  30       29       30 1
  31       29       31 1
  32       31       26 1
  33       24       32 1
  34       32       11 am
  35       32       33 2
  36        9       34 ar
  37       34        5 ar
  38        1       35 1
  39        1       36 1
  40        1       37 1
  41        4       38 1
  42        6       39 1
  43        7       40 1
  44        8       41 1
  45       10       42 1
  46       10       43 1
  47       13       44 1
  48       17       45 1
  49       18       46 1
  50       19       47 1
  51       20       48 1
  52       22       49 1
  53       22       50 1
  54       22       51 1
  55       25       52 1
  56       27       53 1
  57       28       54 1
  58       30       55 1
  59       30       56 1
  60       30       57 1
  61       34       58 1

@<TRIPOS>MOLECULE

  58   61
SMALL
USER_CHARGES
@<TRIPOS>ATOM
   1 C1          -6.0433     0.6729    -1.1401 C.3          1    LIG   0.0000
   2 C2          -4.8159     1.5470    -0.9405 C.2          1    LIG   0.0000
   3 O3          -4.9297     2.7409    -0.8996 O.2          1    LIG   0.0000
   4 N4          -3.5797     0.9718    -0.8074 N.am         1    LIG   0.0000
   5 C5          -2.5937     1.6016    -0.0385 C.ar         1    LIG   0.0000
   6 C6          -2.8800     2.8111     0.5863 C.ar         1    LIG   0.0000
   7 C7          -1.8926     3.4278     1.3473 C.ar         1    LIG   0.0000
   8 C8          -0.6355     2.8496     1.4872 C.ar         1    LIG   0.0000
   9 C9          -0.3711     1.6397     0.8537 C.ar         1    LIG   0.0000
  10 C10          1.0000     1.0000     1.0000 C.3          1    LIG   0.0000
  11 N11          1.8482     1.8482     1.8482 N.am         1    LIG   0.0000
  12 C12          2.4662     2.9796     1.3254 C.2          1    LIG   0.0000
  13 C13          2.3892     3.4252     0.0834 C.2          1    LIG   0.0000
  14 C14          1.5552     2.6756    -0.9427 C.2          1    LIG   0.0000
  15 O15          0.3580     2.6772    -0.8595 O.2          1    LIG   0.0000
  16 C16          2.2061     1.9585    -2.0221 C.ar         1    LIG   0.0000
  17 C17          3.5948     1.9771    -2.0889 C.ar         1    LIG   0.0000
  18 C18          4.2516     1.2996    -3.1109 C.ar         1    LIG   0.0000
  19 C19          3.5187     0.6034    -4.0674 C.ar         1    LIG   0.0000
  20 C20          2.1293     0.5842    -4.0010 C.ar         1    LIG   0.0000
  21 C21          1.4726     1.2617    -2.9788 C.ar         1    LIG   0.0000
  22 C22         -0.0467     1.2196    -2.9365 C.3          1    LIG   0.0000
  23 S23          3.3708     3.7213     2.6057 S.3          1    LIG   0.0000
  24 C24          2.9518     2.5762     3.8353 C.2          1    LIG   0.0000
  25 C25          3.3406     2.5839     5.0970 C.2          1    LIG   0.0000
  26 C26          2.8942     1.5399     5.9999 C.2          1    LIG   0.0000
  27 C27          3.6734     0.6597     6.6890 C.2          1    LIG   0.0000
  28 C28          2.9131    -0.2376     7.4891 C.2          1    LIG   0.0000
  29 C29          1.5628    -0.0756     7.4400 C.2          1    LIG   0.0000
  30 C30          0.5203    -0.8893     8.1892 C.3          1    LIG   0.0000
  31 S31          1.2643     1.2192     6.3731 S.3          1    LIG   0.0000
  32 C32          2.0895     1.6068     3.2001 C.2          1    LIG   0.0000
  33 O33          1.6169     0.6526     3.7975 O.2          1    LIG   0.0000
  34 C34         -1.3434     1.0057     0.0875 C.ar         1    LIG   0.0000
  35 H           -5.7697    -0.2889    -1.1495 H            1    LIG   0.0000
  36 H           -6.6886     0.8286    -0.3921 H            1    LIG   0.0000
  37 H           -6.4793     0.9040    -2.0099 H            1    LIG   0.0000
  38 H           -3.3816     0.1020    -1.2594 H            1    LIG   0.0000
  39 H           -3.7824     3.2310     0.4898 H            1    LIG   0.0000
  40 H           -2.0890     4.2978     1.7996 H            1    LIG   0.0000
  41 H            0.0697     3.2981     2.0365 H            1    LIG   0.0000
  42 H            0.9038     0.0980     1.4209 H            1    LIG   0.0000
  43 H            1.4209     0.9038     0.0980 H            1    LIG   0.0000
  44 H            2.8797     4.2556    -0.1812 H            1    LIG   0.0000
  45 H            4.1216     2.4777    -1.4019 H            1    LIG   0.0000
  46 H            5.2503     1.3129    -3.1584 H            1    LIG   0.0000
  47 H            3.9909     0.1169    -4.8025 H            1    LIG   0.0000
  48 H            1.6027     0.0835    -4.6880 H            1    LIG   0.0000
  49 H           -0.3864     0.6734    -3.7022 H            1    LIG   0.0000
  50 H           -0.3449     0.8080    -2.0753 H            1    LIG   0.0000
  51 H           -0.4079     2.1496    -3.0042 H            1    LIG   0.0000
  52 H            3.9428     3.3094     5.4302 H            1    LIG   0.0000
  53 H            4.6720     0.6460     6.6377 H            1    LIG   0.0000
  54 H            3.3437    -0.9430     8.0521 H            1    LIG   0.0000
  55 H            0.9762    -1.5854     8.7439 H            1    LIG   0.0000
  56 H           -0.0106    -0.2848     8.7832 H            1    LIG   0.0000
  57 H           -0.0906    -1.3330     7.5335 H            1    LIG   0.0000
  58 H           -1.1467     0.1360    -0.3652 H            1    LIG   0.0000
@<TRIPOS>BOND
   1        1        2 1
   2        2        3 2
   3        2        4 am
   4        4        5 1
   5        5        6 ar
   6        6        7 ar
   7        7        8 ar
   8        8        9 ar
   9        9       10 1
  10       10       11 1
  11       11       12 1
  12       12       13 2
  13       13       14 1
  14       14       15 2
  15       14       16 1
  16       16       17 ar
  17       17       18 ar
  18       18       19 ar
  19       19       20 ar
  20       20       21 ar
  21       21       16 ar
  22       21       22 1
  23       12       23 1
  24       23       24 1
  25       24       25 2
  26       25       26 1
  27       26       27 2
  28       27       28 1
  29       28       29 2
  30       29       30 1
  31       29       31 1
  32       31       26 1
  33       24       32 1
  34       32       11 am
  35       32       33 2
  36        9       34 ar
  37       34        5 ar
  38        1       35 1
  39        1       36 1
  40        1       37 1
  41        4       38 1
  42        6       39 1
  43        7       40 1
  44        8       41 1
  45       10       42 1
  46       10       43 1
  47       13       44 1
  48       17       45 1
  49       18       46 1
  50       19       47 1
  51       20       48 1
  52       22       49 1
  53       22       50 1
  54       22       51 1
  55       25       52 1
  56       27       53 1
  57       28       54 1
  58       30       55 1
  59       30       56 1
  60       30       57 1
  61       34       58 1

@<TRIPOS>MOLECULE

  58   61
SMALL
USER_CHARGES
@<TRIPOS>ATOM
   1 C1          -3.9976     3.4884     3.2384 C.3          1    LIG   0.0000
   2 C2          -3.1745     4.7217     2.9038 C.2          1    LIG   0.0000
   3 O3          -3.4090     5.7653     3.4476 O.2          1    LIG   0.0000
   4 N4          -2.1647     4.6417     1.9813 N.am         1    LIG   0.0000
   5 C5          -1.8910     3.4241     1.3468 C.ar         1    LIG   0.0000
   6 C6          -2.8805     2.8099     0.5858 C.ar         1    LIG   0.0000
   7 C7          -2.5973     1.6004    -0.0396 C.ar         1    LIG   0.0000
   8 C8          -1.3455     1.0079     0.0881 C.ar         1    LIG   0.0000
   9 C9          -0.3711     1.6397     0.8537 C.ar         1    LIG   0.0000
  10 C10          1.0000     1.0000     1.0000 C.3          1    LIG   0.0000
  11 N11          1.8482     1.8482     1.8482 N.am         1    LIG   0.0000
  12 C12          2.4662     2.9796     1.3254 C.2          1    LIG   0.0000
  13 C13          2.3892     3.4252     0.0834 C.2          1    LIG   0.0000
  14 C14          1.5552     2.6756    -0.9427 C.2          1    LIG   0.0000
  15 O15          0.3580     2.6772    -0.8595 O.2          1    LIG   0.0000
  16 C16          2.2061     1.9585    -2.0221 C.ar         1    LIG   0.0000
  17 C17          3.5948     1.9771    -2.0889 C.ar         1    LIG   0.0000
  18 C18          4.2516     1.2996    -3.1109 C.ar         1    LIG   0.0000
  19 C19          3.5187     0.6034    -4.0674 C.ar         1    LIG   0.0000
  20 C20          2.1293     0.5842    -4.0010 C.ar         1    LIG   0.0000
  21 C21          1.4726     1.2617    -2.9788 C.ar         1    LIG   0.0000
  22 C22         -0.0467     1.2196    -2.9365 C.3          1    LIG   0.0000
  23 S23          3.3708     3.7213     2.6057 S.3          1    LIG   0.0000
  24 C24          2.9518     2.5762     3.8353 C.2          1    LIG   0.0000
  25 C25          3.3406     2.5839     5.0970 C.2          1    LIG   0.0000
  26 C26          2.8942     1.5399     5.9999 C.2          1    LIG   0.0000
  27 C27          2.1699     1.6957     7.1435 C.2          1    LIG   0.0000
  28 C28          1.8991     0.4606     7.7950 C.2          1    LIG   0.0000
  29 C29          2.3937    -0.6511     7.1854 C.2          1    LIG   0.0000
  30 C30          2.2530    -2.0883     7.6595 C.3          1    LIG   0.0000
  31 S31          3.2041    -0.1201     5.7836 S.3          1    LIG   0.0000
  32 C32          2.0895     1.6068     3.2001 C.2          1    LIG   0.0000
  33 O33          1.6169     0.6526     3.7975 O.2          1    LIG   0.0000
  34 C34         -0.6325     2.8494     1.4884 C.ar         1    LIG   0.0000
  35 H           -3.6705     2.7128     2.6986 H            1    LIG   0.0000
  36 H           -3.9047     3.2797     4.2120 H            1    LIG   0.0000
  37 H           -4.9591     3.6614     3.0248 H            1    LIG   0.0000
  38 H           -1.6232     5.4531     1.7612 H            1    LIG   0.0000
  39 H           -3.7821     3.2318     0.4900 H            1    LIG   0.0000
  40 H           -3.3026     1.1511    -0.5880 H            1    LIG   0.0000
  41 H           -1.1484     0.1385    -0.3649 H            1    LIG   0.0000
  42 H            0.9038     0.0980     1.4209 H            1    LIG   0.0000
  43 H            1.4209     0.9038     0.0980 H            1    LIG   0.0000
  44 H            2.8797     4.2556    -0.1812 H            1    LIG   0.0000
  45 H            4.1216     2.4777    -1.4019 H            1    LIG   0.0000
  46 H            5.2503     1.3129    -3.1584 H            1    LIG   0.0000
  47 H            3.9909     0.1169    -4.8025 H            1    LIG   0.0000
  48 H            1.6027     0.0835    -4.6880 H            1    LIG   0.0000
  49 H           -0.3864     0.6734    -3.7022 H            1    LIG   0.0000
  50 H           -0.3449     0.8080    -2.0753 H            1    LIG   0.0000
  51 H           -0.4079     2.1496    -3.0042 H            1    LIG   0.0000
  52 H            3.9428     3.3094     5.4302 H            1    LIG   0.0000
  53 H            1.8620     2.5827     7.4877 H            1    LIG   0.0000
  54 H            1.3782     0.4122     8.6473 H            1    LIG   0.0000
  55 H            1.7288    -2.1087     8.5109 H            1    LIG   0.0000
  56 H            1.7771    -2.6243     6.9622 H            1    LIG   0.0000
  57 H            3.1605    -2.4776     7.8175 H            1    LIG   0.0000
  58 H            0.0725     3.2984     2.0373 H            1    LIG   0.0000
@<TRIPOS>BOND
   1        1        2 1
   2        2        3 2
   3        2        4 am
   4        4        5 1
   5        5        6 ar
   6        6        7 ar
   7        7        8 ar
   8        8        9 ar
   9        9       10 1
  10       10       11 1
  11       11       12 1
  12       12       13 2
  13       13       14 1
  14       14       15 2
  15       14       16 1
  16       16       17 ar
  17       17       18 ar
  18       18       19 ar
  19       19       20 ar
  20       20       21 ar
  21       21       16 ar
  22       21       22 1
  23       12       23 1
  24       23       24 1
  25       24       25 2
  26       25       26 1
  27       26       27 2
  28       27       28 1
  29       28       29 2
  30       29       30 1
  31       29       31 1
  32       31       26 1
  33       24       32 1
  34       32       11 am
  35       32       33 2
  36        9       34 ar
  37       34        5 ar
  38        1       35 1
  39        1       36 1
  40        1       37 1
  41        4       38 1
  42        6       39 1
  43        7       40 1
  44        8       41 1
  45       10       42 1
  46       10       43 1
  47       13       44 1
  48       17       45 1
  49       18       46 1
  50       19       47 1
  51       20       48 1
  52       22       49 1
  53       22       50 1
  54       22       51 1
  55       25       52 1
  56       27       53 1
  57       28       54 1
  58       30       55 1
  59       30       56 1
  60       30       57 1
  61       34       58 1

@<TRIPOS>MOLECULE

  58   61
SMALL
USER_CHARGES
@<TRIPOS>ATOM
   1 C1          -3.2728     2.6050    -2.6804 C.3          1    LIG   0.0000
   2 C2          -4.1135     1.6121    -1.8945 C.2          1    LIG   0.0000
   3 O3          -5.2450     1.3890    -2.2264 O.2          1    LIG   0.0000
   4 N4          -3.5797     0.9718    -0.8074 N.am         1    LIG   0.0000
   5 C5          -2.5937     1.6016    -0.0385 C.ar         1    LIG   0.0000
   6 C6          -2.8800     2.8111     0.5863 C.ar         1    LIG   0.0000
   7 C7          -1.8926     3.4278     1.3473 C.ar         1    LIG   0.0000
   8 C8          -0.6355     2.8496     1.4872 C.ar         1    LIG   0.0000
   9 C9          -0.3711     1.6397     0.8537 C.ar         1    LIG   0.0000
  10 C10          1.0000     1.0000     1.0000 C.3          1    LIG   0.0000
  11 N11          1.8482     1.8482     1.8482 N.am         1    LIG   0.0000
  12 C12          2.4662     2.9796     1.3254 C.2          1    LIG   0.0000
  13 C13          2.3892     3.4252     0.0834 C.2          1    LIG   0.0000
  14 C14          1.5552     2.6756    -0.9427 C.2          1    LIG   0.0000
  15 O15          0.3580     2.6772    -0.8595 O.2          1    LIG   0.0000
  16 C16          2.2061     1.9585    -2.0221 C.ar         1    LIG   0.0000
  17 C17          3.5948     1.9771    -2.0889 C.ar         1    LIG   0.0000
  18 C18          4.2516     1.2996    -3.1109 C.ar         1    LIG   0.0000
  19 C19          3.5187     0.6034    -4.0674 C.ar         1    LIG   0.0000
  20 C20          2.1293     0.5842    -4.0010 C.ar         1    LIG   0.0000
  21 C21          1.4726     1.2617    -2.9788 C.ar         1    LIG   0.0000
  22 C22         -0.0467     1.2196    -2.9365 C.3          1    LIG   0.0000
  23 S23          3.3708     3.7213     2.6057 S.3          1    LIG   0.0000
  24 C24          2.9518     2.5762     3.8353 C.2          1    LIG   0.0000
  25 C25          3.3406     2.5839     5.0970 C.2          1    LIG   0.0000
  26 C26          2.8942     1.5399     5.9999 C.2          1    LIG   0.0000
  27 C27          2.1699     1.6957     7.1435 C.2          1    LIG   0.0000
  28 C28          1.8991     0.4606     7.7950 C.2          1    LIG   0.0000
  29 C29          2.3937    -0.6511     7.1854 C.2          1    LIG   0.0000
  30 C30          2.2530    -2.0883     7.6595 C.3          1    LIG   0.0000
  31 S31          3.2041    -0.1201     5.7836 S.3          1    LIG   0.0000
  32 C32          2.0895     1.6068     3.2001 C.2          1    LIG   0.0000
  33 O33          1.6169     0.6526     3.7975 O.2          1    LIG   0.0000
  34 C34         -1.3434     1.0057     0.0875 C.ar         1    LIG   0.0000
  35 H           -2.3630     2.6695    -2.2703 H            1    LIG   0.0000
  36 H           -3.1901     2.2955    -3.6277 H            1    LIG   0.0000
  37 H           -3.7120     3.5031    -2.6602 H            1    LIG   0.0000
  38 H           -3.8942     0.0545    -0.5630 H            1    LIG   0.0000
  39 H           -3.7824     3.2310     0.4898 H            1    LIG   0.0000
  40 H           -2.0890     4.2978     1.7996 H            1    LIG   0.0000
  41 H            0.0697     3.2981     2.0365 H            1    LIG   0.0000
  42 H            0.9038     0.0980     1.4209 H            1    LIG   0.0000
  43 H            1.4209     0.9038     0.0980 H            1    LIG   0.0000
  44 H            2.8797     4.2556    -0.1812 H            1    LIG   0.0000
  45 H            4.1216     2.4777    -1.4019 H            1    LIG   0.0000
  46 H            5.2503     1.3129    -3.1584 H            1    LIG   0.0000
  47 H            3.9909     0.1169    -4.8025 H            1    LIG   0.0000
  48 H            1.6027     0.0835    -4.6880 H            1    LIG   0.0000
  49 H           -0.3864     0.6734    -3.7022 H            1    LIG   0.0000
  50 H           -0.3449     0.8080    -2.0753 H            1    LIG   0.0000
  51 H           -0.4079     2.1496    -3.0042 H            1    LIG   0.0000
  52 H            3.9428     3.3094     5.4302 H            1    LIG   0.0000
  53 H            1.8620     2.5827     7.4877 H            1    LIG   0.0000
  54 H            1.3782     0.4122     8.6473 H            1    LIG   0.0000
  55 H            1.7288    -2.1087     8.5109 H            1    LIG   0.0000
  56 H            1.7771    -2.6243     6.9622 H            1    LIG   0.0000
  57 H            3.1605    -2.4776     7.8175 H            1    LIG   0.0000
  58 H           -1.1467     0.1360    -0.3652 H            1    LIG   0.0000
@<TRIPOS>BOND
   1        1        2 1
   2        2        3 2
   3        2        4 am
   4        4        5 1
   5        5        6 ar
   6        6        7 ar
   7        7        8 ar
   8        8        9 ar
   9        9       10 1
  10       10       11 1
  11       11       12 1
  12       12       13 2
  13       13       14 1
  14       14       15 2
  15       14       16 1
  16       16       17 ar
  17       17       18 ar
  18       18       19 ar
  19       19       20 ar
  20       20       21 ar
  21       21       16 ar
  22       21       22 1
  23       12       23 1
  24       23       24 1
  25       24       25 2
  26       25       26 1
  27       26       27 2
  28       27       28 1
  29       28       29 2
  30       29       30 1
  31       29       31 1
  32       31       26 1
  33       24       32 1
  34       32       11 am
  35       32       33 2
  36        9       34 ar
  37       34        5 ar
  38        1       35 1
  39        1       36 1
  40        1       37 1
  41        4       38 1
  42        6       39 1
  43        7       40 1
  44        8       41 1
  45       10       42 1
  46       10       43 1
  47       13       44 1
  48       17       45 1
  49       18       46 1
  50       19       47 1
  51       20       48 1
  52       22       49 1
  53       22       50 1
  54       22       51 1
  55       25       52 1
  56       27       53 1
  57       28       54 1
  58       30       55 1
  59       30       56 1
  60       30       57 1
  61       34       58 1

@<TRIPOS>MOLECULE

  58   61
SMALL
USER_CHARGES
@<TRIPOS>ATOM
   1 C1          -4.4389     3.7541     2.5382 C.3          1    LIG   0.0000
   2 C2          -3.3836     4.8476     2.5719 C.2          1    LIG   0.0000
   3 O3          -3.6182     5.8913     3.1157 O.2          1    LIG   0.0000
   4 N4          -2.1647     4.6417     1.9813 N.am         1    LIG   0.0000
   5 C5          -1.8910     3.4241     1.3468 C.ar         1    LIG   0.0000
   6 C6          -2.8805     2.8099     0.5858 C.ar         1    LIG   0.0000
   7 C7          -2.5973     1.6004    -0.0396 C.ar         1    LIG   0.0000
   8 C8          -1.3455     1.0079     0.0881 C.ar         1    LIG   0.0000
   9 C9          -0.3711     1.6397     0.8537 C.ar         1    LIG   0.0000
  10 C10          1.0000     1.0000     1.0000 C.3          1    LIG   0.0000
  11 N11          1.8482     1.8482     1.8482 N.am         1    LIG   0.0000
  12 C12          2.4662     2.9796     1.3254 C.2          1    LIG   0.0000
  13 C13          2.3892     3.4252     0.0834 C.2          1    LIG   0.0000
  14 C14          1.5552     2.6756    -0.9427 C.2          1    LIG   0.0000
  15 O15          0.3580     2.6772    -0.8595 O.2          1    LIG   0.0000
  16 C16          2.2061     1.9585    -2.0221 C.ar         1    LIG   0.0000
  17 C17          1.9182     2.3261    -3.3318 C.ar         1    LIG   0.0000
  18 C18          2.5251     1.6595    -4.3911 C.ar         1    LIG   0.0000
  19 C19          3.4204     0.6240    -4.1404 C.ar         1    LIG   0.0000
  20 C20          3.7091     0.2560    -2.8303 C.ar         1    LIG   0.0000
  21 C21          3.1022     0.9227    -1.7709 C.ar         1    LIG   0.0000
  22 C22          3.4407     0.4946    -0.3518 C.3          1    LIG   0.0000
  23 S23          3.3708     3.7213     2.6057 S.3          1    LIG   0.0000
  24 C24          2.9518     2.5762     3.8353 C.2          1    LIG   0.0000
  25 C25          3.3406     2.5839     5.0970 C.2          1    LIG   0.0000
  26 C26          2.8942     1.5399     5.9999 C.2          1    LIG   0.0000
  27 C27          3.6734     0.6597     6.6890 C.2          1    LIG   0.0000
  28 C28          2.9131    -0.2376     7.4891 C.2          1    LIG   0.0000
  29 C29          1.5628    -0.0756     7.4400 C.2          1    LIG   0.0000
  30 C30          0.5203    -0.8893     8.1892 C.3          1    LIG   0.0000
  31 S31          1.2643     1.2192     6.3731 S.3          1    LIG   0.0000
  32 C32          2.0895     1.6068     3.2001 C.2          1    LIG   0.0000
  33 O33          1.6169     0.6526     3.7975 O.2          1    LIG   0.0000
  34 C34         -0.6325     2.8494     1.4884 C.ar         1    LIG   0.0000
  35 H           -4.0796     2.9591     2.0495 H            1    LIG   0.0000
  36 H           -4.6764     3.4912     3.4734 H            1    LIG   0.0000
  37 H           -5.2549     4.0926     2.0697 H            1    LIG   0.0000
  38 H           -1.4705     5.3611     2.0034 H            1    LIG   0.0000
  39 H           -3.7821     3.2318     0.4900 H            1    LIG   0.0000
  40 H           -3.3026     1.1511    -0.5880 H            1    LIG   0.0000
  41 H           -1.1484     0.1385    -0.3649 H            1    LIG   0.0000
  42 H            0.9038     0.0980     1.4209 H            1    LIG   0.0000
  43 H            1.4209     0.9038     0.0980 H            1    LIG   0.0000
  44 H            2.8797     4.2556    -0.1812 H            1    LIG   0.0000
  45 H            1.2746     3.0699    -3.5122 H            1    LIG   0.0000
  46 H            2.3181     1.9244    -5.3329 H            1    LIG   0.0000
  47 H            3.8562     0.1444    -4.9020 H            1    LIG   0.0000
  48 H            4.3528    -0.4877    -2.6501 H            1    LIG   0.0000
  49 H            4.0976    -0.2589    -0.3787 H            1    LIG   0.0000
  50 H            3.8392     1.2667     0.1432 H            1    LIG   0.0000
  51 H            2.6080     0.1944     0.1134 H            1    LIG   0.0000
  52 H            3.9428     3.3094     5.4302 H            1    LIG   0.0000
  53 H            4.6720     0.6460     6.6377 H            1    LIG   0.0000
  54 H            3.3437    -0.9430     8.0521 H            1    LIG   0.0000
  55 H            0.9762    -1.5854     8.7439 H            1    LIG   0.0000
  56 H           -0.0106    -0.2848     8.7832 H            1    LIG   0.0000
  57 H           -0.0906    -1.3330     7.5335 H            1    LIG   0.0000
  58 H            0.0725     3.2984     2.0373 H            1    LIG   0.0000
@<TRIPOS>BOND
   1        1        2 1
   2        2        3 2
   3        2        4 am
   4        4        5 1
   5        5        6 ar
   6        6        7 ar
   7        7        8 ar
   8        8        9 ar
   9        9       10 1
  10       10       11 1
  11       11       12 1
  12       12       13 2
  13       13       14 1
  14       14       15 2
  15       14       16 1
  16       16       17 ar
  17       17       18 ar
  18       18       19 ar
  19       19       20 ar
  20       20       21 ar
  21       21       16 ar
  22       21       22 1
  23       12       23 1
  24       23       24 1
  25       24       25 2
  26       25       26 1
  27       26       27 2
  28       27       28 1
  29       28       29 2
  30       29       30 1
  31       29       31 1
  32       31       26 1
  33       24       32 1
  34       32       11 am
  35       32       33 2
  36        9       34 ar
  37       34        5 ar
  38        1       35 1
  39        1       36 1
  40        1       37 1
  41        4       38 1
  42        6       39 1
  43        7       40 1
  44        8       41 1
  45       10       42 1
  46       10       43 1
  47       13       44 1
  48       17       45 1
  49       18       46 1
  50       19       47 1
  51       20       48 1
  52       22       49 1
  53       22       50 1
  54       22       51 1
  55       25       52 1
  56       27       53 1
  57       28       54 1
  58       30       55 1
  59       30       56 1
  60       30       57 1
  61       34       58 1

@<TRIPOS>MOLECULE

  58   61
SMALL
USER_CHARGES
@<TRIPOS>ATOM
   1 C1          -4.2354     3.2265    -1.6769 C.3          1    LIG   0.0000
   2 C2          -4.3980     1.7164    -1.6153 C.2          1    LIG   0.0000
   3 O3          -5.2431     1.1766    -2.2743 O.2          1    LIG   0.0000
   4 N4          -3.5797     0.9718    -0.8074 N.am         1    LIG   0.0000
   5 C5          -2.5937     1.6016    -0.0385 C.ar         1    LIG   0.0000
   6 C6          -2.8800     2.8111     0.5863 C.ar         1    LIG   0.0000
   7 C7          -1.8926     3.4278     1.3473 C.ar         1    LIG   0.0000
   8 C8          -0.6355     2.8496     1.4872 C.ar         1    LIG   0.0000
   9 C9          -0.3711     1.6397     0.8537 C.ar         1    LIG   0.0000
  10 C10          1.0000     1.0000     1.0000 C.3          1    LIG   0.0000
  11 N11          1.8482     1.8482     1.8482 N.am         1    LIG   0.0000
  12 C12          2.4662     2.9796     1.3254 C.2          1    LIG   0.0000
  13 C13          2.3892     3.4252     0.0834 C.2          1    LIG   0.0000
  14 C14          1.5552     2.6756    -0.9427 C.2          1    LIG   0.0000
  15 O15          0.3580     2.6772    -0.8595 O.2          1    LIG   0.0000
  16 C16          2.2061     1.9585    -2.0221 C.ar         1    LIG   0.0000
  17 C17          1.9182     2.3261    -3.3318 C.ar         1    LIG   0.0000
  18 C18          2.5251     1.6595    -4.3911 C.ar         1    LIG   0.0000
  19 C19          3.4204     0.6240    -4.1404 C.ar         1    LIG   0.0000
  20 C20          3.7091     0.2560    -2.8303 C.ar         1    LIG   0.0000
  21 C21          3.1022     0.9227    -1.7709 C.ar         1    LIG   0.0000
  22 C22          3.4407     0.4946    -0.3518 C.3          1    LIG   0.0000
  23 S23          3.3708     3.7213     2.6057 S.3          1    LIG   0.0000
  24 C24          2.9518     2.5762     3.8353 C.2          1    LIG   0.0000
  25 C25          3.3406     2.5839     5.0970 C.2          1    LIG   0.0000
  26 C26          2.8942     1.5399     5.9999 C.2          1    LIG   0.0000
  27 C27          3.6734     0.6597     6.6890 C.2          1    LIG   0.0000
  28 C28          2.9131    -0.2376     7.4891 C.2          1    LIG   0.0000
  29 C29          1.5628    -0.0756     7.4400 C.2          1    LIG   0.0000
  30 C30          0.5203    -0.8893     8.1892 C.3          1    LIG   0.0000
  31 S31          1.2643     1.2192     6.3731 S.3          1    LIG   0.0000
  32 C32          2.0895     1.6068     3.2001 C.2          1    LIG   0.0000
  33 O33          1.6169     0.6526     3.7975 O.2          1    LIG   0.0000
  34 C34         -1.3434     1.0057     0.0875 C.ar         1    LIG   0.0000
  35 H           -3.4913     3.5066    -1.0704 H            1    LIG   0.0000
  36 H           -4.0225     3.5008    -2.6146 H            1    LIG   0.0000
  37 H           -5.0856     3.6654    -1.3861 H            1    LIG   0.0000
  38 H           -3.6866    -0.0217    -0.7669 H            1    LIG   0.0000
  39 H           -3.7824     3.2310     0.4898 H            1    LIG   0.0000
  40 H           -2.0890     4.2978     1.7996 H            1    LIG   0.0000
  41 H            0.0697     3.2981     2.0365 H            1    LIG   0.0000
  42 H            0.9038     0.0980     1.4209 H            1    LIG   0.0000
  43 H            1.4209     0.9038     0.0980 H            1    LIG   0.0000
  44 H            2.8797     4.2556    -0.1812 H            1    LIG   0.0000
  45 H            1.2746     3.0699    -3.5122 H            1    LIG   0.0000
  46 H            2.3181     1.9244    -5.3329 H            1    LIG   0.0000
  47 H            3.8562     0.1444    -4.9020 H            1    LIG   0.0000
  48 H            4.3528    -0.4877    -2.6501 H            1    LIG   0.0000
  49 H            4.0976    -0.2589    -0.3787 H            1    LIG   0.0000
  50 H            3.8392     1.2667     0.1432 H            1    LIG   0.0000
  51 H            2.6080     0.1944     0.1134 H            1    LIG   0.0000
  52 H            3.9428     3.3094     5.4302 H            1    LIG   0.0000
  53 H            4.6720     0.6460     6.6377 H            1    LIG   0.0000
  54 H            3.3437    -0.9430     8.0521 H            1    LIG   0.0000
  55 H            0.9762    -1.5854     8.7439 H            1    LIG   0.0000
  56 H           -0.0106    -0.2848     8.7832 H            1    LIG   0.0000
  57 H           -0.0906    -1.3330     7.5335 H            1    LIG   0.0000
  58 H           -1.1467     0.1360    -0.3652 H            1    LIG   0.0000
@<TRIPOS>BOND
   1        1        2 1
   2        2        3 2
   3        2        4 am
   4        4        5 1
   5        5        6 ar
   6        6        7 ar
   7        7        8 ar
   8        8        9 ar
   9        9       10 1
  10       10       11 1
  11       11       12 1
  12       12       13 2
  13       13       14 1
  14       14       15 2
  15       14       16 1
  16       16       17 ar
  17       17       18 ar
  18       18       19 ar
  19       19       20 ar
  20       20       21 ar
  21       21       16 ar
  22       21       22 1
  23       12       23 1
  24       23       24 1
  25       24       25 2
  26       25       26 1
  27       26       27 2
  28       27       28 1
  29       28       29 2
  30       29       30 1
  31       29       31 1
  32       31       26 1
  33       24       32 1
  34       32       11 am
  35       32       33 2
  36        9       34 ar
  37       34        5 ar
  38        1       35 1
  39        1       36 1
  40        1       37 1
  41        4       38 1
  42        6       39 1
  43        7       40 1
  44        8       41 1
  45       10       42 1
  46       10       43 1
  47       13       44 1
  48       17       45 1
  49       18       46 1
  50       19       47 1
  51       20       48 1
  52       22       49 1
  53       22       50 1
  54       22       51 1
  55       25       52 1
  56       27       53 1
  57       28       54 1
  58       30       55 1
  59       30       56 1
  60       30       57 1
  61       34       58 1

@<TRIPOS>MOLECULE

  58   61
SMALL
USER_CHARGES
@<TRIPOS>ATOM
   1 C1          -3.5408     6.7322     1.9044 C.3          1    LIG   0.0000
   2 C2          -3.4000     5.2197     1.8508 C.2          1    LIG   0.0000
   3 O3          -4.3707     4.5319     1.6942 O.2          1    LIG   0.0000
   4 N4          -2.1647     4.6417     1.9813 N.am         1    LIG   0.0000
   5 C5          -1.8910     3.4241     1.3468 C.ar         1    LIG   0.0000
   6 C6          -2.8805     2.8099     0.5858 C.ar         1    LIG   0.0000
   7 C7          -2.5973     1.6004    -0.0396 C.ar         1    LIG   0.0000
   8 C8          -1.3455     1.0079     0.0881 C.ar         1    LIG   0.0000
   9 C9          -0.3711     1.6397     0.8537 C.ar         1    LIG   0.0000
  10 C10          1.0000     1.0000     1.0000 C.3          1    LIG   0.0000
  11 N11          1.8482     1.8482     1.8482 N.am         1    LIG   0.0000
  12 C12          2.4662     2.9796     1.3254 C.2          1    LIG   0.0000
  13 C13          2.3892     3.4252     0.0834 C.2          1    LIG   0.0000
  14 C14          1.5552     2.6756    -0.9427 C.2          1    LIG   0.0000
  15 O15          0.3580     2.6772    -0.8595 O.2          1    LIG   0.0000
  16 C16          2.2061     1.9585    -2.0221 C.ar         1    LIG   0.0000
  17 C17          1.9182     2.3261    -3.3318 C.ar         1    LIG   0.0000
  18 C18          2.5251     1.6595    -4.3911 C.ar         1    LIG   0.0000
  19 C19          3.4204     0.6240    -4.1404 C.ar         1    LIG   0.0000
  20 C20          3.7091     0.2560    -2.8303 C.ar         1    LIG   0.0000
  21 C21          3.1022     0.9227    -1.7709 C.ar         1    LIG   0.0000
  22 C22          3.4407     0.4946    -0.3518 C.3          1    LIG   0.0000
  23 S23          3.3708     3.7213     2.6057 S.3          1    LIG   0.0000
  24 C24          2.9518     2.5762     3.8353 C.2          1    LIG   0.0000
  25 C25          3.3406     2.5839     5.0970 C.2          1    LIG   0.0000
  26 C26          2.8942     1.5399     5.9999 C.2          1    LIG   0.0000
  27 C27          2.1699     1.6957     7.1435 C.2          1    LIG   0.0000
  28 C28          1.8991     0.4606     7.7950 C.2          1    LIG   0.0000
  29 C29          2.3937    -0.6511     7.1854 C.2          1    LIG   0.0000
  30 C30          2.2530    -2.0883     7.6595 C.3          1    LIG   0.0000
  31 S31          3.2041    -0.1201     5.7836 S.3          1    LIG   0.0000
  32 C32          2.0895     1.6068     3.2001 C.2          1    LIG   0.0000
  33 O33          1.6169     0.6526     3.7975 O.2          1    LIG   0.0000
  34 C34         -0.6325     2.8494     1.4884 C.ar         1    LIG   0.0000
  35 H           -2.6406     7.1463     2.0391 H            1    LIG   0.0000
  36 H           -3.9339     7.0610     1.0457 H            1    LIG   0.0000
  37 H           -4.1407     6.9844     2.6637 H            1    LIG   0.0000
  38 H           -1.4586     5.0896     2.5298 H            1    LIG   0.0000
  39 H           -3.7821     3.2318     0.4900 H            1    LIG   0.0000
  40 H           -3.3026     1.1511    -0.5880 H            1    LIG   0.0000
  41 H           -1.1484     0.1385    -0.3649 H            1    LIG   0.0000
  42 H            0.9038     0.0980     1.4209 H            1    LIG   0.0000
  43 H            1.4209     0.9038     0.0980 H            1    LIG   0.0000
  44 H            2.8797     4.2556    -0.1812 H            1    LIG   0.0000
  45 H            1.2746     3.0699    -3.5122 H            1    LIG   0.0000
  46 H            2.3181     1.9244    -5.3329 H            1    LIG   0.0000
  47 H            3.8562     0.1444    -4.9020 H            1    LIG   0.0000
  48 H            4.3528    -0.4877    -2.6501 H            1    LIG   0.0000
  49 H            4.0976    -0.2589    -0.3787 H            1    LIG   0.0000
  50 H            3.8392     1.2667     0.1432 H            1    LIG   0.0000
  51 H            2.6080     0.1944     0.1134 H            1    LIG   0.0000
  52 H            3.9428     3.3094     5.4302 H            1    LIG   0.0000
  53 H            1.8620     2.5827     7.4877 H            1    LIG   0.0000
  54 H            1.3782     0.4122     8.6473 H            1    LIG   0.0000
  55 H            1.7288    -2.1087     8.5109 H            1    LIG   0.0000
  56 H            1.7771    -2.6243     6.9622 H            1    LIG   0.0000
  57 H            3.1605    -2.4776     7.8175 H            1    LIG   0.0000
  58 H            0.0725     3.2984     2.0373 H            1    LIG   0.0000
@<TRIPOS>BOND
   1        1        2 1
   2        2        3 2
   3        2        4 am
   4        4        5 1
   5        5        6 ar
   6        6        7 ar
   7        7        8 ar
   8        8        9 ar
   9        9       10 1
  10       10       11 1
  11       11       12 1
  12       12       13 2
  13       13       14 1
  14       14       15 2
  15       14       16 1
  16       16       17 ar
  17       17       18 ar
  18       18       19 ar
  19       19       20 ar
  20       20       21 ar
  21       21       16 ar
  22       21       22 1
  23       12       23 1
  24       23       24 1
  25       24       25 2
  26       25       26 1
  27       26       27 2
  28       27       28 1
  29       28       29 2
  30       29       30 1
  31       29       31 1
  32       31       26 1
  33       24       32 1
  34       32       11 am
  35       32       33 2
  36        9       34 ar
  37       34        5 ar
  38        1       35 1
  39        1       36 1
  40        1       37 1
  41        4       38 1
  42        6       39 1
  43        7       40 1
  44        8       41 1
  45       10       42 1
  46       10       43 1
  47       13       44 1
  48       17       45 1
  49       18       46 1
  50       19       47 1
  51       20       48 1
  52       22       49 1
  53       22       50 1
  54       22       51 1
  55       25       52 1
  56       27       53 1
  57       28       54 1
  58       30       55 1
  59       30       56 1
  60       30       57 1
  61       34       58 1

@<TRIPOS>MOLECULE

  58   61
SMALL
USER_CHARGES
@<TRIPOS>ATOM
   1 C1          -4.4389     3.7541     2.5382 C.3          1    LIG   0.0000
   2 C2          -3.3836     4.8476     2.5719 C.2          1    LIG   0.0000
   3 O3          -3.6182     5.8913     3.1157 O.2          1    LIG   0.0000
   4 N4          -2.1647     4.6417     1.9813 N.am         1    LIG   0.0000
   5 C5          -1.8910     3.4241     1.3468 C.ar         1    LIG   0.0000
   6 C6          -2.8805     2.8099     0.5858 C.ar         1    LIG   0.0000
   7 C7          -2.5973     1.6004    -0.0396 C.ar         1    LIG   0.0000
   8 C8          -1.3455     1.0079     0.0881 C.ar         1    LIG   0.0000
   9 C9          -0.3711     1.6397     0.8537 C.ar         1    LIG   0.0000
  10 C10          1.0000     1.0000     1.0000 C.3          1    LIG   0.0000
  11 N11          1.8482     1.8482     1.8482 N.am         1    LIG   0.0000
  12 C12          2.4662     2.9796     1.3254 C.2          1    LIG   0.0000
  13 C13          2.3892     3.4252     0.0834 C.2          1    LIG   0.0000
  14 C14          1.5552     2.6756    -0.9427 C.2          1    LIG   0.0000
  15 O15          0.3580     2.6772    -0.8595 O.2          1    LIG   0.0000
  16 C16          2.2061     1.9585    -2.0221 C.ar         1    LIG   0.0000
  17 C17          1.9993     0.5877    -2.1280 C.ar         1    LIG   0.0000
  18 C18          2.6082    -0.1310    -3.1516 C.ar         1    LIG   0.0000
  19 C19          3.4251     0.5219    -4.0698 C.ar         1    LIG   0.0000
  20 C20          3.6321     1.8935    -3.9645 C.ar         1    LIG   0.0000
  21 C21          3.0231     2.6122    -2.9409 C.ar         1    LIG   0.0000
  22 C22          3.2712     4.1098    -2.8557 C.3          1    LIG   0.0000
  23 S23          3.3708     3.7213     2.6057 S.3          1    LIG   0.0000
  24 C24          2.9518     2.5762     3.8353 C.2          1    LIG   0.0000
  25 C25          3.3406     2.5839     5.0970 C.2          1    LIG   0.0000
  26 C26          2.8942     1.5399     5.9999 C.2          1    LIG   0.0000
  27 C27          2.1699     1.6957     7.1435 C.2          1    LIG   0.0000
  28 C28          1.8991     0.4606     7.7950 C.2          1    LIG   0.0000
  29 C29          2.3937    -0.6511     7.1854 C.2          1    LIG   0.0000
  30 C30          2.2530    -2.0883     7.6595 C.3          1    LIG   0.0000
  31 S31          3.2041    -0.1201     5.7836 S.3          1    LIG   0.0000
  32 C32          2.0895     1.6068     3.2001 C.2          1    LIG   0.0000
  33 O33          1.6169     0.6526     3.7975 O.2          1    LIG   0.0000
  34 C34         -0.6325     2.8494     1.4884 C.ar         1    LIG   0.0000
  35 H           -4.0796     2.9591     2.0495 H            1    LIG   0.0000
  36 H           -4.6764     3.4912     3.4734 H            1    LIG   0.0000
  37 H           -5.2549     4.0926     2.0697 H            1    LIG   0.0000
  38 H           -1.4705     5.3611     2.0034 H            1    LIG   0.0000
  39 H           -3.7821     3.2318     0.4900 H            1    LIG   0.0000
  40 H           -3.3026     1.1511    -0.5880 H            1    LIG   0.0000
  41 H           -1.1484     0.1385    -0.3649 H            1    LIG   0.0000
  42 H            0.9038     0.0980     1.4209 H            1    LIG   0.0000
  43 H            1.4209     0.9038     0.0980 H            1    LIG   0.0000
  44 H            2.8797     4.2556    -0.1812 H            1    LIG   0.0000
  45 H            1.4127     0.1182    -1.4681 H            1    LIG   0.0000
  46 H            2.4588    -1.1168    -3.2277 H            1    LIG   0.0000
  47 H            3.8632     0.0051    -4.8053 H            1    LIG   0.0000
  48 H            4.2187     2.3628    -4.6246 H            1    LIG   0.0000
  49 H            3.8798     4.3897    -3.5982 H            1    LIG   0.0000
  50 H            2.4015     4.5968    -2.9361 H            1    LIG   0.0000
  51 H            3.6954     4.3280    -1.9768 H            1    LIG   0.0000
  52 H            3.9428     3.3094     5.4302 H            1    LIG   0.0000
  53 H            1.8620     2.5827     7.4877 H            1    LIG   0.0000
  54 H            1.3782     0.4122     8.6473 H            1    LIG   0.0000
  55 H            1.7288    -2.1087     8.5109 H            1    LIG   0.0000
  56 H            1.7771    -2.6243     6.9622 H            1    LIG   0.0000
  57 H            3.1605    -2.4776     7.8175 H            1    LIG   0.0000
  58 H            0.0725     3.2984     2.0373 H            1    LIG   0.0000
@<TRIPOS>BOND
   1        1        2 1
   2        2        3 2
   3        2        4 am
   4        4        5 1
   5        5        6 ar
   6        6        7 ar
   7        7        8 ar
   8        8        9 ar
   9        9       10 1
  10       10       11 1
  11       11       12 1
  12       12       13 2
  13       13       14 1
  14       14       15 2
  15       14       16 1
  16       16       17 ar
  17       17       18 ar
  18       18       19 ar
  19       19       20 ar
  20       20       21 ar
  21       21       16 ar
  22       21       22 1
  23       12       23 1
  24       23       24 1
  25       24       25 2
  26       25       26 1
  27       26       27 2
  28       27       28 1
  29       28       29 2
  30       29       30 1
  31       29       31 1
  32       31       26 1
  33       24       32 1
  34       32       11 am
  35       32       33 2
  36        9       34 ar
  37       34        5 ar
  38        1       35 1
  39        1       36 1
  40        1       37 1
  41        4       38 1
  42        6       39 1
  43        7       40 1
  44        8       41 1
  45       10       42 1
  46       10       43 1
  47       13       44 1
  48       17       45 1
  49       18       46 1
  50       19       47 1
  51       20       48 1
  52       22       49 1
  53       22       50 1
  54       22       51 1
  55       25       52 1
  56       27       53 1
  57       28       54 1
  58       30       55 1
  59       30       56 1
  60       30       57 1
  61       34       58 1

@<TRIPOS>MOLECULE

  58   61
SMALL
USER_CHARGES
@<TRIPOS>ATOM
   1 C1          -4.2354     3.2265    -1.6769 C.3          1    LIG   0.0000
   2 C2          -4.3980     1.7164    -1.6153 C.2          1    LIG   0.0000
   3 O3          -5.2431     1.1766    -2.2743 O.2          1    LIG   0.0000
   4 N4          -3.5797     0.9718    -0.8074 N.am         1    LIG   0.0000
   5 C5          -2.5937     1.6016    -0.0385 C.ar         1    LIG   0.0000
   6 C6          -2.8800     2.8111     0.5863 C.ar         1    LIG   0.0000
   7 C7          -1.8926     3.4278     1.3473 C.ar         1    LIG   0.0000
   8 C8          -0.6355     2.8496     1.4872 C.ar         1    LIG   0.0000
   9 C9          -0.3711     1.6397     0.8537 C.ar         1    LIG   0.0000
  10 C10          1.0000     1.0000     1.0000 C.3          1    LIG   0.0000
  11 N11          1.8482     1.8482     1.8482 N.am         1    LIG   0.0000
  12 C12          2.4662     2.9796     1.3254 C.2          1    LIG   0.0000
  13 C13          2.3892     3.4252     0.0834 C.2          1    LIG   0.0000
  14 C14          1.5552     2.6756    -0.9427 C.2          1    LIG   0.0000
  15 O15          0.3580     2.6772    -0.8595 O.2          1    LIG   0.0000
  16 C16          2.2061     1.9585    -2.0221 C.ar         1    LIG   0.0000
  17 C17          1.9993     0.5877    -2.1280 C.ar         1    LIG   0.0000
  18 C18          2.6082    -0.1310    -3.1516 C.ar         1    LIG   0.0000
  19 C19          3.4251     0.5219    -4.0698 C.ar         1    LIG   0.0000
  20 C20          3.6321     1.8935    -3.9645 C.ar         1    LIG   0.0000
  21 C21          3.0231     2.6122    -2.9409 C.ar         1    LIG   0.0000
  22 C22          3.2712     4.1098    -2.8557 C.3          1    LIG   0.0000
  23 S23          3.3708     3.7213     2.6057 S.3          1    LIG   0.0000
  24 C24          2.9518     2.5762     3.8353 C.2          1    LIG   0.0000
  25 C25          3.3406     2.5839     5.0970 C.2          1    LIG   0.0000
  26 C26          2.8942     1.5399     5.9999 C.2          1    LIG   0.0000
  27 C27          2.1699     1.6957     7.1435 C.2          1    LIG   0.0000
  28 C28          1.8991     0.4606     7.7950 C.2          1    LIG   0.0000
  29 C29          2.3937    -0.6511     7.1854 C.2          1    LIG   0.0000
  30 C30          2.2530    -2.0883     7.6595 C.3          1    LIG   0.0000
  31 S31          3.2041    -0.1201     5.7836 S.3          1    LIG   0.0000
  32 C32          2.0895     1.6068     3.2001 C.2          1    LIG   0.0000
  33 O33          1.6169     0.6526     3.7975 O.2          1    LIG   0.0000
  34 C34         -1.3434     1.0057     0.0875 C.ar         1    LIG   0.0000
  35 H           -3.4913     3.5066    -1.0704 H            1    LIG   0.0000
  36 H           -4.0225     3.5008    -2.6146 H            1    LIG   0.0000
  37 H           -5.0856     3.6654    -1.3861 H            1    LIG   0.0000
  38 H           -3.6866    -0.0217    -0.7669 H            1    LIG   0.0000
  39 H           -3.7824     3.2310     0.4898 H            1    LIG   0.0000
  40 H           -2.0890     4.2978     1.7996 H            1    LIG   0.0000
  41 H            0.0697     3.2981     2.0365 H            1    LIG   0.0000
  42 H            0.9038     0.0980     1.4209 H            1    LIG   0.0000
  43 H            1.4209     0.9038     0.0980 H            1    LIG   0.0000
  44 H            2.8797     4.2556    -0.1812 H            1    LIG   0.0000
  45 H            1.4127     0.1182    -1.4681 H            1    LIG   0.0000
  46 H            2.4588    -1.1168    -3.2277 H            1    LIG   0.0000
  47 H            3.8632     0.0051    -4.8053 H            1    LIG   0.0000
  48 H            4.2187     2.3628    -4.6246 H            1    LIG   0.0000
  49 H            3.8798     4.3897    -3.5982 H            1    LIG   0.0000
  50 H            2.4015     4.5968    -2.9361 H            1    LIG   0.0000
  51 H            3.6954     4.3280    -1.9768 H            1    LIG   0.0000
  52 H            3.9428     3.3094     5.4302 H            1    LIG   0.0000
  53 H            1.8620     2.5827     7.4877 H            1    LIG   0.0000
  54 H            1.3782     0.4122     8.6473 H            1    LIG   0.0000
  55 H            1.7288    -2.1087     8.5109 H            1    LIG   0.0000
  56 H            1.7771    -2.6243     6.9622 H            1    LIG   0.0000
  57 H            3.1605    -2.4776     7.8175 H            1    LIG   0.0000
  58 H           -1.1467     0.1360    -0.3652 H            1    LIG   0.0000
@<TRIPOS>BOND
   1        1        2 1
   2        2        3 2
   3        2        4 am
   4        4        5 1
   5        5        6 ar
   6        6        7 ar
   7        7        8 ar
   8        8        9 ar
   9        9       10 1
  10       10       11 1
  11       11       12 1
  12       12       13 2
  13       13       14 1
  14       14       15 2
  15       14       16 1
  16       16       17 ar
  17       17       18 ar
  18       18       19 ar
  19       19       20 ar
  20       20       21 ar
  21       21       16 ar
  22       21       22 1
  23       12       23 1
  24       23       24 1
  25       24       25 2
  26       25       26 1
  27       26       27 2
  28       27       28 1
  29       28       29 2
  30       29       30 1
  31       29       31 1
  32       31       26 1
  33       24       32 1
  34       32       11 am
  35       32       33 2
  36        9       34 ar
  37       34        5 ar
  38        1       35 1
  39        1       36 1
  40        1       37 1
  41        4       38 1
  42        6       39 1
  43        7       40 1
  44        8       41 1
  45       10       42 1
  46       10       43 1
  47       13       44 1
  48       17       45 1
  49       18       46 1
  50       19       47 1
  51       20       48 1
  52       22       49 1
  53       22       50 1
  54       22       51 1
  55       25       52 1
  56       27       53 1
  57       28       54 1
  58       30       55 1
  59       30       56 1
  60       30       57 1
  61       34       58 1

@<TRIPOS>MOLECULE

  58   61
SMALL
USER_CHARGES
@<TRIPOS>ATOM
   1 C1          -3.4207     5.3415    -0.0687 C.3          1    LIG   0.0000
   2 C2          -2.9010     5.6001     1.3361 C.2          1    LIG   0.0000
   3 O3          -3.1356     6.6437     1.8799 O.2          1    LIG   0.0000
   4 N4          -2.1647     4.6417     1.9813 N.am         1    LIG   0.0000
   5 C5          -1.8910     3.4241     1.3468 C.ar         1    LIG   0.0000
   6 C6          -2.8805     2.8099     0.5858 C.ar         1    LIG   0.0000
   7 C7          -2.5973     1.6004    -0.0396 C.ar         1    LIG   0.0000
   8 C8          -1.3455     1.0079     0.0881 C.ar         1    LIG   0.0000
   9 C9          -0.3711     1.6397     0.8537 C.ar         1    LIG   0.0000
  10 C10          1.0000     1.0000     1.0000 C.3          1    LIG   0.0000
  11 N11          1.8482     1.8482     1.8482 N.am         1    LIG   0.0000
  12 C12          2.4662     2.9796     1.3254 C.2          1    LIG   0.0000
  13 C13          2.3892     3.4252     0.0834 C.2          1    LIG   0.0000
  14 C14          1.5552     2.6756    -0.9427 C.2          1    LIG   0.0000
  15 O15          0.3580     2.6772    -0.8595 O.2          1    LIG   0.0000
  16 C16          2.2061     1.9585    -2.0221 C.ar         1    LIG   0.0000
  17 C17          1.9993     0.5877    -2.1280 C.ar         1    LIG   0.0000
  18 C18          2.6082    -0.1310    -3.1516 C.ar         1    LIG   0.0000
  19 C19          3.4251     0.5219    -4.0698 C.ar         1    LIG   0.0000
  20 C20          3.6321     1.8935    -3.9645 C.ar         1    LIG   0.0000
  21 C21          3.0231     2.6122    -2.9409 C.ar         1    LIG   0.0000
  22 C22          3.2712     4.1098    -2.8557 C.3          1    LIG   0.0000
  23 S23          3.3708     3.7213     2.6057 S.3          1    LIG   0.0000
  24 C24          2.9518     2.5762     3.8353 C.2          1    LIG   0.0000
  25 C25          3.3406     2.5839     5.0970 C.2          1    LIG   0.0000
  26 C26          2.8942     1.5399     5.9999 C.2          1    LIG   0.0000
  27 C27          3.1122     0.2002     5.8802 C.2          1    LIG   0.0000
  28 C28          2.5351    -0.5476     6.9438 C.2          1    LIG   0.0000
  29 C29          1.8754     0.1778     7.8875 C.2          1    LIG   0.0000
  30 C30          1.1713    -0.3607     9.1222 C.3          1    LIG   0.0000
  31 S31          1.9906     1.8115     7.4170 S.3          1    LIG   0.0000
  32 C32          2.0895     1.6068     3.2001 C.2          1    LIG   0.0000
  33 O33          1.6169     0.6526     3.7975 O.2          1    LIG   0.0000
  34 C34         -0.6325     2.8494     1.4884 C.ar         1    LIG   0.0000
  35 H           -3.1357     4.4305    -0.3671 H            1    LIG   0.0000
  36 H           -4.4192     5.3954    -0.0699 H            1    LIG   0.0000
  37 H           -3.0490     6.0283    -0.6934 H            1    LIG   0.0000
  38 H           -1.8228     4.8119     2.9055 H            1    LIG   0.0000
  39 H           -3.7821     3.2318     0.4900 H            1    LIG   0.0000
  40 H           -3.3026     1.1511    -0.5880 H            1    LIG   0.0000
  41 H           -1.1484     0.1385    -0.3649 H            1    LIG   0.0000
  42 H            0.9038     0.0980     1.4209 H            1    LIG   0.0000
  43 H            1.4209     0.9038     0.0980 H            1    LIG   0.0000
  44 H            2.8797     4.2556    -0.1812 H            1    LIG   0.0000
  45 H            1.4127     0.1182    -1.4681 H            1    LIG   0.0000
  46 H            2.4588    -1.1168    -3.2277 H            1    LIG   0.0000
  47 H            3.8632     0.0051    -4.8053 H            1    LIG   0.0000
  48 H            4.2187     2.3628    -4.6246 H            1    LIG   0.0000
  49 H            3.8798     4.3897    -3.5982 H            1    LIG   0.0000
  50 H            2.4015     4.5968    -2.9361 H            1    LIG   0.0000
  51 H            3.6954     4.3280    -1.9768 H            1    LIG   0.0000
  52 H            3.9428     3.3094     5.4302 H            1    LIG   0.0000
  53 H            3.6229    -0.2127     5.1261 H            1    LIG   0.0000
  54 H            2.6094    -1.5435     6.9948 H            1    LIG   0.0000
  55 H            1.2611    -1.3563     9.1495 H            1    LIG   0.0000
  56 H            1.5867     0.0341     9.9416 H            1    LIG   0.0000
  57 H            0.2027    -0.1142     9.0877 H            1    LIG   0.0000
  58 H            0.0725     3.2984     2.0373 H            1    LIG   0.0000
@<TRIPOS>BOND
   1        1        2 1
   2        2        3 2
   3        2        4 am
   4        4        5 1
   5        5        6 ar
   6        6        7 ar
   7        7        8 ar
   8        8        9 ar
   9        9       10 1
  10       10       11 1
  11       11       12 1
  12       12       13 2
  13       13       14 1
  14       14       15 2
  15       14       16 1
  16       16       17 ar
  17       17       18 ar
  18       18       19 ar
  19       19       20 ar
  20       20       21 ar
  21       21       16 ar
  22       21       22 1
  23       12       23 1
  24       23       24 1
  25       24       25 2
  26       25       26 1
  27       26       27 2
  28       27       28 1
  29       28       29 2
  30       29       30 1
  31       29       31 1
  32       31       26 1
  33       24       32 1
  34       32       11 am
  35       32       33 2
  36        9       34 ar
  37       34        5 ar
  38        1       35 1
  39        1       36 1
  40        1       37 1
  41        4       38 1
  42        6       39 1
  43        7       40 1
  44        8       41 1
  45       10       42 1
  46       10       43 1
  47       13       44 1
  48       17       45 1
  49       18       46 1
  50       19       47 1
  51       20       48 1
  52       22       49 1
  53       22       50 1
  54       22       51 1
  55       25       52 1
  56       27       53 1
  57       28       54 1
  58       30       55 1
  59       30       56 1
  60       30       57 1
  61       34       58 1

@<TRIPOS>MOLECULE

  58   61
SMALL
USER_CHARGES
@<TRIPOS>ATOM
   1 C1          -5.0084     0.8682     1.2463 C.3          1    LIG   0.0000
   2 C2          -4.7644     0.5985    -0.2296 C.2          1    LIG   0.0000
   3 O3          -5.6096     0.0587    -0.8886 O.2          1    LIG   0.0000
   4 N4          -3.5797     0.9718    -0.8074 N.am         1    LIG   0.0000
   5 C5          -2.5937     1.6016    -0.0385 C.ar         1    LIG   0.0000
   6 C6          -2.8800     2.8111     0.5863 C.ar         1    LIG   0.0000
   7 C7          -1.8926     3.4278     1.3473 C.ar         1    LIG   0.0000
   8 C8          -0.6355     2.8496     1.4872 C.ar         1    LIG   0.0000
   9 C9          -0.3711     1.6397     0.8537 C.ar         1    LIG   0.0000
  10 C10          1.0000     1.0000     1.0000 C.3          1    LIG   0.0000
  11 N11          1.8482     1.8482     1.8482 N.am         1    LIG   0.0000
  12 C12          2.4662     2.9796     1.3254 C.2          1    LIG   0.0000
  13 C13          2.3892     3.4252     0.0834 C.2          1    LIG   0.0000
  14 C14          1.5552     2.6756    -0.9427 C.2          1    LIG   0.0000
  15 O15          0.3580     2.6772    -0.8595 O.2          1    LIG   0.0000
  16 C16          2.2061     1.9585    -2.0221 C.ar         1    LIG   0.0000
  17 C17          1.9993     0.5877    -2.1280 C.ar         1    LIG   0.0000
  18 C18          2.6082    -0.1310    -3.1516 C.ar         1    LIG   0.0000
  19 C19          3.4251     0.5219    -4.0698 C.ar         1    LIG   0.0000
  20 C20          3.6321     1.8935    -3.9645 C.ar         1    LIG   0.0000
  21 C21          3.0231     2.6122    -2.9409 C.ar         1    LIG   0.0000
  22 C22          3.2712     4.1098    -2.8557 C.3          1    LIG   0.0000
  23 S23          3.3708     3.7213     2.6057 S.3          1    LIG   0.0000
  24 C24          2.9518     2.5762     3.8353 C.2          1    LIG   0.0000
  25 C25          3.3406     2.5839     5.0970 C.2          1    LIG   0.0000
  26 C26          2.8942     1.5399     5.9999 C.2          1    LIG   0.0000
  27 C27          3.1122     0.2002     5.8802 C.2          1    LIG   0.0000
  28 C28          2.5351    -0.5476     6.9438 C.2          1    LIG   0.0000
  29 C29          1.8754     0.1778     7.8875 C.2          1    LIG   0.0000
  30 C30          1.1713    -0.3607     9.1222 C.3          1    LIG   0.0000
  31 S31          1.9906     1.8115     7.4170 S.3          1    LIG   0.0000
  32 C32          2.0895     1.6068     3.2001 C.2          1    LIG   0.0000
  33 O33          1.6169     0.6526     3.7975 O.2          1    LIG   0.0000
  34 C34         -1.3434     1.0057     0.0875 C.ar         1    LIG   0.0000
  35 H           -4.2078     1.3205     1.6393 H            1    LIG   0.0000
  36 H           -5.8090     1.4586     1.3493 H            1    LIG   0.0000
  37 H           -5.1690     0.0029     1.7211 H            1    LIG   0.0000
  38 H           -3.4191     0.7943    -1.7783 H            1    LIG   0.0000
  39 H           -3.7824     3.2310     0.4898 H            1    LIG   0.0000
  40 H           -2.0890     4.2978     1.7996 H            1    LIG   0.0000
  41 H            0.0697     3.2981     2.0365 H            1    LIG   0.0000
  42 H            0.9038     0.0980     1.4209 H            1    LIG   0.0000
  43 H            1.4209     0.9038     0.0980 H            1    LIG   0.0000
  44 H            2.8797     4.2556    -0.1812 H            1    LIG   0.0000
  45 H            1.4127     0.1182    -1.4681 H            1    LIG   0.0000
  46 H            2.4588    -1.1168    -3.2277 H            1    LIG   0.0000
  47 H            3.8632     0.0051    -4.8053 H            1    LIG   0.0000
  48 H            4.2187     2.3628    -4.6246 H            1    LIG   0.0000
  49 H            3.8798     4.3897    -3.5982 H            1    LIG   0.0000
  50 H            2.4015     4.5968    -2.9361 H            1    LIG   0.0000
  51 H            3.6954     4.3280    -1.9768 H            1    LIG   0.0000
  52 H            3.9428     3.3094     5.4302 H            1    LIG   0.0000
  53 H            3.6229    -0.2127     5.1261 H            1    LIG   0.0000
  54 H            2.6094    -1.5435     6.9948 H            1    LIG   0.0000
  55 H            1.2611    -1.3563     9.1495 H            1    LIG   0.0000
  56 H            1.5867     0.0341     9.9416 H            1    LIG   0.0000
  57 H            0.2027    -0.1142     9.0877 H            1    LIG   0.0000
  58 H           -1.1467     0.1360    -0.3652 H            1    LIG   0.0000
@<TRIPOS>BOND
   1        1        2 1
   2        2        3 2
   3        2        4 am
   4        4        5 1
   5        5        6 ar
   6        6        7 ar
   7        7        8 ar
   8        8        9 ar
   9        9       10 1
  10       10       11 1
  11       11       12 1
  12       12       13 2
  13       13       14 1
  14       14       15 2
  15       14       16 1
  16       16       17 ar
  17       17       18 ar
  18       18       19 ar
  19       19       20 ar
  20       20       21 ar
  21       21       16 ar
  22       21       22 1
  23       12       23 1
  24       23       24 1
  25       24       25 2
  26       25       26 1
  27       26       27 2
  28       27       28 1
  29       28       29 2
  30       29       30 1
  31       29       31 1
  32       31       26 1
  33       24       32 1
  34       32       11 am
  35       32       33 2
  36        9       34 ar
  37       34        5 ar
  38        1       35 1
  39        1       36 1
  40        1       37 1
  41        4       38 1
  42        6       39 1
  43        7       40 1
  44        8       41 1
  45       10       42 1
  46       10       43 1
  47       13       44 1
  48       17       45 1
  49       18       46 1
  50       19       47 1
  51       20       48 1
  52       22       49 1
  53       22       50 1
  54       22       51 1
  55       25       52 1
  56       27       53 1
  57       28       54 1
  58       30       55 1
  59       30       56 1
  60       30       57 1
  61       34       58 1

