@<TRIPOS>MOLECULE
*****
 58 61 0 0 0
SMALL
USER_CHARGES

@<TRIPOS>ATOM
      1 C1         -3.5408    6.7322    1.9044 C.3     1  LIG1        0.0000
      2 C2         -3.4000    5.2197    1.8508 C.2     1  LIG1        0.0000
      3 O3         -4.3707    4.5319    1.6942 O.2     1  LIG1        0.0000
      4 N4         -2.1647    4.6417    1.9813 N.am    1  LIG1        0.0000
      5 C5         -1.8910    3.4241    1.3468 C.3     1  LIG1        0.0000
      6 C6         -2.8805    2.8099    0.5858 C.3     1  LIG1        0.0000
      7 C7         -2.5973    1.6004   -0.0396 C.3     1  LIG1        0.0000
      8 C8         -1.3455    1.0079    0.0881 C.3     1  LIG1        0.0000
      9 C9         -0.3711    1.6397    0.8537 C.3     1  LIG1        0.0000
     10 C10         1.0000    1.0000    1.0000 C.3     1  LIG1        0.0000
     11 N11         1.8482    1.8482    1.8482 N.am    1  LIG1        0.0000
     12 C12         2.4662    2.9796    1.3254 C.2     1  LIG1        0.0000
     13 C13         2.3892    3.4252    0.0834 C.2     1  LIG1        0.0000
     14 C14         1.5552    2.6756   -0.9427 C.2     1  LIG1        0.0000
     15 O15         0.3580    2.6772   -0.8595 O.2     1  LIG1        0.0000
     16 C16         2.2061    1.9585   -2.0221 C.3     1  LIG1        0.0000
     17 C17         3.5948    1.9771   -2.0889 C.3     1  LIG1        0.0000
     18 C18         4.2516    1.2996   -3.1109 C.3     1  LIG1        0.0000
     19 C19         3.5187    0.6034   -4.0674 C.3     1  LIG1        0.0000
     20 C20         2.1293    0.5842   -4.0010 C.3     1  LIG1        0.0000
     21 C21         1.4726    1.2617   -2.9788 C.3     1  LIG1        0.0000
     22 C22        -0.0467    1.2196   -2.9365 C.3     1  LIG1        0.0000
     23 S23         3.3708    3.7213    2.6057 S.3     1  LIG1        0.0000
     24 C24         2.9518    2.5762    3.8353 C.2     1  LIG1        0.0000
     25 C25         3.3406    2.5839    5.0970 C.2     1  LIG1        0.0000
     26 C26         2.8942    1.5399    5.9999 C.2     1  LIG1        0.0000
     27 C27         3.6734    0.6597    6.6890 C.2     1  LIG1        0.0000
     28 C28         2.9131   -0.2376    7.4891 C.2     1  LIG1        0.0000
     29 C29         1.5628   -0.0756    7.4400 C.2     1  LIG1        0.0000
     30 C30         0.5203   -0.8893    8.1892 C.3     1  LIG1        0.0000
     31 S31         1.2643    1.2192    6.3731 S.3     1  LIG1        0.0000
     32 C32         2.0895    1.6068    3.2001 C.2     1  LIG1        0.0000
     33 O33         1.6169    0.6526    3.7975 O.2     1  LIG1        0.0000
     34 C34        -0.6325    2.8494    1.4884 C.3     1  LIG1        0.0000
     35 H          -2.6406    7.1463    2.0391 H       1  LIG1        0.0000
     36 H          -3.9339    7.0610    1.0457 H       1  LIG1        0.0000
     37 H          -4.1407    6.9844    2.6637 H       1  LIG1        0.0000
     38 H          -1.4586    5.0896    2.5298 H       1  LIG1        0.0000
     39 H          -3.7821    3.2318    0.4900 H       1  LIG1        0.0000
     40 H          -3.3026    1.1511   -0.5880 H       1  LIG1        0.0000
     41 H          -1.1484    0.1385   -0.3649 H       1  LIG1        0.0000
     42 H           0.9038    0.0980    1.4209 H       1  LIG1        0.0000
     43 H           1.4209    0.9038    0.0980 H       1  LIG1        0.0000
     44 H           2.8797    4.2556   -0.1812 H       1  LIG1        0.0000
     45 H           4.1216    2.4777   -1.4019 H       1  LIG1        0.0000
     46 H           5.2503    1.3129   -3.1584 H       1  LIG1        0.0000
     47 H           3.9909    0.1169   -4.8025 H       1  LIG1        0.0000
     48 H           1.6027    0.0835   -4.6880 H       1  LIG1        0.0000
     49 H          -0.3864    0.6734   -3.7022 H       1  LIG1        0.0000
     50 H          -0.3449    0.8080   -2.0753 H       1  LIG1        0.0000
     51 H          -0.4079    2.1496   -3.0042 H       1  LIG1        0.0000
     52 H           3.9428    3.3094    5.4302 H       1  LIG1        0.0000
     53 H           4.6720    0.6460    6.6377 H       1  LIG1        0.0000
     54 H           3.3437   -0.9430    8.0521 H       1  LIG1        0.0000
     55 H           0.9762   -1.5854    8.7439 H       1  LIG1        0.0000
     56 H          -0.0106   -0.2848    8.7832 H       1  LIG1        0.0000
     57 H          -0.0906   -1.3330    7.5335 H       1  LIG1        0.0000
     58 H           0.0725    3.2984    2.0373 H       1  LIG1        0.0000
@<TRIPOS>BOND
     1     1     2    1
     2     2     3    2
     3     2     4   am
     4     4     5    1
     5     5     6   ar
     6     6     7   ar
     7     7     8   ar
     8     8     9   ar
     9     9    10    1
    10    10    11    1
    11    11    12    1
    12    12    13    2
    13    13    14    1
    14    14    15    2
    15    14    16    1
    16    16    17   ar
    17    17    18   ar
    18    18    19   ar
    19    19    20   ar
    20    20    21   ar
    21    21    16   ar
    22    21    22    1
    23    12    23    1
    24    23    24    1
    25    24    25    2
    26    25    26    1
    27    26    27    2
    28    27    28    1
    29    28    29    2
    30    29    30    1
    31    29    31    1
    32    31    26    1
    33    24    32    1
    34    32    11   am
    35    32    33    2
    36     9    34   ar
    37    34     5   ar
    38     1    35    1
    39     1    36    1
    40     1    37    1
    41     4    38    1
    42     6    39    1
    43     7    40    1
    44     8    41    1
    45    10    42    1
    46    10    43    1
    47    13    44    1
    48    17    45    1
    49    18    46    1
    50    19    47    1
    51    20    48    1
    52    22    49    1
    53    22    50    1
    54    22    51    1
    55    25    52    1
    56    27    53    1
    57    28    54    1
    58    30    55    1
    59    30    56    1
    60    30    57    1
    61    34    58    1
