@<TRIPOS>MOLECULE

  48   52
SMALL
USER_CHARGES
@<TRIPOS>ATOM
   1 C1           7.4447     3.4693     5.1195 C.3          1    LIG   0.0000
   2 C2           7.7061     2.6955     3.8381 C.2          1    LIG   0.0000
   3 C3           8.9829     2.4453     3.4259 C.2          1    LIG   0.0000
   4 C4          10.2006     2.8518     4.1007 C.2          1    LIG   0.0000
   5 O5          11.3134     2.5537     3.6156 O.co2        1    LIG   0.0000
   6 O6          10.1394     3.4796     5.1333 O.co2        1    LIG  -1.0000
   7 S7           8.8941     1.5619     1.9722 S.3          1    LIG   0.0000
   8 C8           7.1937     1.5284     1.8966 C.2          1    LIG   0.0000
   9 N9           6.5122     0.9240     0.8859 N.2          1    LIG   0.0000
  10 C10          5.1970     0.9654     0.9483 C.2          1    LIG   0.0000
  11 C11          4.4882     0.3355    -0.1096 C.2          1    LIG   0.0000
  12 C12          5.1400    -0.3298    -1.2213 C.ar         1    LIG   0.0000
  13 C13          6.1416    -1.2628    -0.9736 C.ar         1    LIG   0.0000
  14 C14          6.7618    -1.8955    -2.0457 C.ar         1    LIG   0.0000
  15 C15          6.3788    -1.5933    -3.3490 C.ar         1    LIG   0.0000
  16 C16          5.3760    -0.6591    -3.5874 C.ar         1    LIG   0.0000
  17 C17          4.7510    -0.0212    -2.5207 C.ar         1    LIG   0.0000
  18 C18          3.1219     0.3617    -0.0716 C.2          1    LIG   0.0000
  19 C19          2.4486     1.0000     1.0000 C.2          1    LIG   0.0000
  20 C20          1.0000     1.0000     1.0000 C.2          1    LIG   0.0000
  21 O21          0.4000     0.0933     0.4921 O.2          1    LIG   0.0000
  22 C22          0.2749     2.0958     1.6138 C.ar         1    LIG   0.0000
  23 C23         -0.0724     2.0327     2.9594 C.ar         1    LIG   0.0000
  24 C24         -0.7678     3.0834     3.5484 C.ar         1    LIG   0.0000
  25 C25         -1.1150     4.1985     2.7925 C.ar         1    LIG   0.0000
  26 C26         -0.7673     4.2623     1.4467 C.ar         1    LIG   0.0000
  27 C27         -0.0734     3.2111     0.8571 C.ar         1    LIG   0.0000
  28 O28          0.2500     3.3004    -0.4508 O.3          1    LIG   0.0000
  29 C29          3.1787     1.5918     1.9949 C.2          1    LIG   0.0000
  30 N30          4.5522     1.5886     1.9890 N.pl3        1    LIG   0.0000
  31 C31          5.2730     2.1923     2.9928 C.2          1    LIG   0.0000
  32 O32          4.6992     2.7509     3.9200 O.2          1    LIG   0.0000
  33 C33          6.6972     2.1808     2.9780 C.2          1    LIG   0.0000
  34 H            6.4586     3.5559     5.2612 H            1    LIG   0.0000
  35 H            7.8509     2.9816     5.8922 H            1    LIG   0.0000
  36 H            7.8524     4.3796     5.0482 H            1    LIG   0.0000
  37 H            6.4126    -1.4763    -0.0350 H            1    LIG   0.0000
  38 H            7.4833    -2.5679    -1.8800 H            1    LIG   0.0000
  39 H            6.8265    -2.0499    -4.1178 H            1    LIG   0.0000
  40 H            5.1044    -0.4460    -4.5259 H            1    LIG   0.0000
  41 H            4.0300     0.6518    -2.6862 H            1    LIG   0.0000
  42 H            2.5952    -0.0714    -0.8031 H            1    LIG   0.0000
  43 H            0.1779     1.2318     3.5033 H            1    LIG   0.0000
  44 H           -1.0182     3.0372     4.5154 H            1    LIG   0.0000
  45 H           -1.6144     4.9541     3.2163 H            1    LIG   0.0000
  46 H           -1.0163     5.0641     0.9034 H            1    LIG   0.0000
  47 H           -0.0100     4.1108    -0.9759 H            1    LIG   0.0000
  48 H            2.6978     2.0398     2.7486 H            1    LIG   0.0000
@<TRIPOS>BOND
   1        1        2 1
   2        2        3 2
   3        3        4 1
   4        4        5 ar
   5        4        6 ar
   6        3        7 1
   7        7        8 1
   8        8        9 1
   9        9       10 2
  10       10       11 1
  11       11       12 1
  12       12       13 ar
  13       13       14 ar
  14       14       15 ar
  15       15       16 ar
  16       16       17 ar
  17       17       12 ar
  18       11       18 2
  19       18       19 1
  20       19       20 1
  21       20       21 2
  22       20       22 1
  23       22       23 ar
  24       23       24 ar
  25       24       25 ar
  26       25       26 ar
  27       26       27 ar
  28       27       22 ar
  29       27       28 1
  30       19       29 2
  31       29       30 1
  32       30       10 1
  33       30       31 1
  34       31       32 2
  35       31       33 1
  36       33        2 1
  37       33        8 2
  38        1       34 1
  39        1       35 1
  40        1       36 1
  41       13       37 1
  42       14       38 1
  43       15       39 1
  44       16       40 1
  45       17       41 1
  46       18       42 1
  47       23       43 1
  48       24       44 1
  49       25       45 1
  50       26       46 1
  51       28       47 1
  52       29       48 1

@<TRIPOS>MOLECULE

  48   52
SMALL
USER_CHARGES
@<TRIPOS>ATOM
   1 C1           7.4447     3.4693     5.1195 C.3          1    LIG   0.0000
   2 C2           7.7061     2.6955     3.8381 C.2          1    LIG   0.0000
   3 C3           8.9829     2.4453     3.4259 C.2          1    LIG   0.0000
   4 C4          10.2006     2.8518     4.1007 C.2          1    LIG   0.0000
   5 O5          11.3134     2.5537     3.6156 O.co2        1    LIG   0.0000
   6 O6          10.1394     3.4796     5.1333 O.co2        1    LIG  -1.0000
   7 S7           8.8941     1.5619     1.9722 S.3          1    LIG   0.0000
   8 C8           7.1937     1.5284     1.8966 C.2          1    LIG   0.0000
   9 N9           6.5122     0.9240     0.8859 N.2          1    LIG   0.0000
  10 C10          5.1970     0.9654     0.9483 C.2          1    LIG   0.0000
  11 C11          4.4882     0.3355    -0.1096 C.2          1    LIG   0.0000
  12 C12          5.1400    -0.3298    -1.2213 C.ar         1    LIG   0.0000
  13 C13          6.1416    -1.2628    -0.9736 C.ar         1    LIG   0.0000
  14 C14          6.7618    -1.8955    -2.0457 C.ar         1    LIG   0.0000
  15 C15          6.3788    -1.5933    -3.3490 C.ar         1    LIG   0.0000
  16 C16          5.3760    -0.6591    -3.5874 C.ar         1    LIG   0.0000
  17 C17          4.7510    -0.0212    -2.5207 C.ar         1    LIG   0.0000
  18 C18          3.1219     0.3617    -0.0716 C.2          1    LIG   0.0000
  19 C19          2.4486     1.0000     1.0000 C.2          1    LIG   0.0000
  20 C20          1.0000     1.0000     1.0000 C.2          1    LIG   0.0000
  21 O21          0.4000     0.0933     0.4921 O.2          1    LIG   0.0000
  22 C22          0.2749     2.0958     1.6138 C.ar         1    LIG   0.0000
  23 C23         -0.0733     3.2098     0.8568 C.ar         1    LIG   0.0000
  24 C24         -0.7687     4.2609     1.4450 C.ar         1    LIG   0.0000
  25 C25         -1.1178     4.1979     2.7903 C.ar         1    LIG   0.0000
  26 C26         -0.7703     3.0835     3.5476 C.ar         1    LIG   0.0000
  27 C27         -0.0734     2.0332     2.9601 C.ar         1    LIG   0.0000
  28 O28          0.2509     0.9650     3.7197 O.3          1    LIG   0.0000
  29 C29          3.1787     1.5918     1.9949 C.2          1    LIG   0.0000
  30 N30          4.5522     1.5886     1.9890 N.pl3        1    LIG   0.0000
  31 C31          5.2730     2.1923     2.9928 C.2          1    LIG   0.0000
  32 O32          4.6992     2.7509     3.9200 O.2          1    LIG   0.0000
  33 C33          6.6972     2.1808     2.9780 C.2          1    LIG   0.0000
  34 H            6.4586     3.5559     5.2612 H            1    LIG   0.0000
  35 H            7.8509     2.9816     5.8922 H            1    LIG   0.0000
  36 H            7.8524     4.3796     5.0482 H            1    LIG   0.0000
  37 H            6.4126    -1.4763    -0.0350 H            1    LIG   0.0000
  38 H            7.4833    -2.5679    -1.8800 H            1    LIG   0.0000
  39 H            6.8265    -2.0499    -4.1178 H            1    LIG   0.0000
  40 H            5.1044    -0.4460    -4.5259 H            1    LIG   0.0000
  41 H            4.0300     0.6518    -2.6862 H            1    LIG   0.0000
  42 H            2.5952    -0.0714    -0.8031 H            1    LIG   0.0000
  43 H            0.1765     3.2549    -0.1104 H            1    LIG   0.0000
  44 H           -1.0179     5.0620     0.9009 H            1    LIG   0.0000
  45 H           -1.6184     4.9534     3.2129 H            1    LIG   0.0000
  46 H           -1.0217     3.0379     4.5145 H            1    LIG   0.0000
  47 H           -0.0092     0.9405     4.6850 H            1    LIG   0.0000
  48 H            2.6978     2.0398     2.7486 H            1    LIG   0.0000
@<TRIPOS>BOND
   1        1        2 1
   2        2        3 2
   3        3        4 1
   4        4        5 ar
   5        4        6 ar
   6        3        7 1
   7        7        8 1
   8        8        9 1
   9        9       10 2
  10       10       11 1
  11       11       12 1
  12       12       13 ar
  13       13       14 ar
  14       14       15 ar
  15       15       16 ar
  16       16       17 ar
  17       17       12 ar
  18       11       18 2
  19       18       19 1
  20       19       20 1
  21       20       21 2
  22       20       22 1
  23       22       23 ar
  24       23       24 ar
  25       24       25 ar
  26       25       26 ar
  27       26       27 ar
  28       27       22 ar
  29       27       28 1
  30       19       29 2
  31       29       30 1
  32       30       10 1
  33       30       31 1
  34       31       32 2
  35       31       33 1
  36       33        2 1
  37       33        8 2
  38        1       34 1
  39        1       35 1
  40        1       36 1
  41       13       37 1
  42       14       38 1
  43       15       39 1
  44       16       40 1
  45       17       41 1
  46       18       42 1
  47       23       43 1
  48       24       44 1
  49       25       45 1
  50       26       46 1
  51       28       47 1
  52       29       48 1

@<TRIPOS>MOLECULE

  48   52
SMALL
USER_CHARGES
@<TRIPOS>ATOM
   1 C1           7.4447    -3.8022     1.0787 C.3          1    LIG   0.0000
   2 C2           7.7061    -2.3056     1.0493 C.2          1    LIG   0.0000
   3 C3           8.9829    -1.8235     1.0387 C.2          1    LIG   0.0000
   4 C4          10.2006    -2.6112     1.0534 C.2          1    LIG   0.0000
   5 O5          11.3134    -2.0420     1.0377 O.co2        1    LIG   0.0000
   6 O6          10.1394    -3.8194     1.0808 O.co2        1    LIG  -1.0000
   7 S7           8.8941    -0.1229     1.0006 S.3          1    LIG   0.0000
   8 C8           7.1937    -0.0407     1.0093 C.2          1    LIG   0.0000
   9 N9           6.5122     1.1368     0.9913 N.2          1    LIG   0.0000
  10 C10          5.1970     1.0621     0.9959 C.2          1    LIG   0.0000
  11 C11          4.4882     2.2932     0.9793 C.2          1    LIG   0.0000
  12 C12          5.1400     3.5886     0.9590 C.ar         1    LIG   0.0000
  13 C13          6.1416     3.8406     0.0271 C.ar         1    LIG   0.0000
  14 C14          6.7618     5.0855     0.0153 C.ar         1    LIG   0.0000
  15 C15          6.3788     6.0630     0.9286 C.ar         1    LIG   0.0000
  16 C16          5.3760     5.8024     1.8569 C.ar         1    LIG   0.0000
  17 C17          4.7510     4.5596     1.8760 C.ar         1    LIG   0.0000
  18 C18          3.1219     2.2472     0.9830 C.2          1    LIG   0.0000
  19 C19          2.4486     1.0000     1.0000 C.2          1    LIG   0.0000
  20 C20          1.0000     1.0000     1.0000 C.2          1    LIG   0.0000
  21 O21          0.4000     0.0933     0.4921 O.2          1    LIG   0.0000
  22 C22          0.2749     2.0958     1.6138 C.ar         1    LIG   0.0000
  23 C23         -0.0724     2.0327     2.9594 C.ar         1    LIG   0.0000
  24 C24         -0.7678     3.0834     3.5484 C.ar         1    LIG   0.0000
  25 C25         -1.1150     4.1985     2.7925 C.ar         1    LIG   0.0000
  26 C26         -0.7673     4.2623     1.4467 C.ar         1    LIG   0.0000
  27 C27         -0.0734     3.2111     0.8571 C.ar         1    LIG   0.0000
  28 O28          0.2500     3.3004    -0.4508 O.3          1    LIG   0.0000
  29 C29          3.1787    -0.1575     1.0151 C.2          1    LIG   0.0000
  30 N30          4.5522    -0.1508     1.0153 N.pl3        1    LIG   0.0000
  31 C31          5.2730    -1.3220     1.0361 C.2          1    LIG   0.0000
  32 O32          4.6992    -2.4042     1.0564 O.2          1    LIG   0.0000
  33 C33          6.6972    -1.3034     1.0336 C.2          1    LIG   0.0000
  34 H            6.4586    -3.9683     1.0829 H            1    LIG   0.0000
  35 H            7.8509    -4.2275     0.2700 H            1    LIG   0.0000
  36 H            7.8524    -4.1956     1.9027 H            1    LIG   0.0000
  37 H            6.4126     3.1345    -0.6270 H            1    LIG   0.0000
  38 H            7.4833     5.2781    -0.6499 H            1    LIG   0.0000
  39 H            6.8265     6.9571     0.9176 H            1    LIG   0.0000
  40 H            5.1044     6.5086     2.5107 H            1    LIG   0.0000
  41 H            4.0300     4.3664     2.5415 H            1    LIG   0.0000
  42 H            2.5952     3.0972     0.9737 H            1    LIG   0.0000
  43 H            0.1779     1.2318     3.5033 H            1    LIG   0.0000
  44 H           -1.0182     3.0372     4.5154 H            1    LIG   0.0000
  45 H           -1.6144     4.9541     3.2163 H            1    LIG   0.0000
  46 H           -1.0163     5.0641     0.9034 H            1    LIG   0.0000
  47 H           -0.0100     4.1108    -0.9759 H            1    LIG   0.0000
  48 H            2.6978    -1.0342     1.0263 H            1    LIG   0.0000
@<TRIPOS>BOND
   1        1        2 1
   2        2        3 2
   3        3        4 1
   4        4        5 ar
   5        4        6 ar
   6        3        7 1
   7        7        8 1
   8        8        9 1
   9        9       10 2
  10       10       11 1
  11       11       12 1
  12       12       13 ar
  13       13       14 ar
  14       14       15 ar
  15       15       16 ar
  16       16       17 ar
  17       17       12 ar
  18       11       18 2
  19       18       19 1
  20       19       20 1
  21       20       21 2
  22       20       22 1
  23       22       23 ar
  24       23       24 ar
  25       24       25 ar
  26       25       26 ar
  27       26       27 ar
  28       27       22 ar
  29       27       28 1
  30       19       29 2
  31       29       30 1
  32       30       10 1
  33       30       31 1
  34       31       32 2
  35       31       33 1
  36       33        2 1
  37       33        8 2
  38        1       34 1
  39        1       35 1
  40        1       36 1
  41       13       37 1
  42       14       38 1
  43       15       39 1
  44       16       40 1
  45       17       41 1
  46       18       42 1
  47       23       43 1
  48       24       44 1
  49       25       45 1
  50       26       46 1
  51       28       47 1
  52       29       48 1

@<TRIPOS>MOLECULE

  48   52
SMALL
USER_CHARGES
@<TRIPOS>ATOM
   1 C1           7.4447    -3.8022     1.0787 C.3          1    LIG   0.0000
   2 C2           7.7061    -2.3056     1.0493 C.2          1    LIG   0.0000
   3 C3           8.9829    -1.8235     1.0387 C.2          1    LIG   0.0000
   4 C4          10.2006    -2.6112     1.0534 C.2          1    LIG   0.0000
   5 O5          11.3134    -2.0420     1.0377 O.co2        1    LIG   0.0000
   6 O6          10.1394    -3.8194     1.0808 O.co2        1    LIG  -1.0000
   7 S7           8.8941    -0.1229     1.0006 S.3          1    LIG   0.0000
   8 C8           7.1937    -0.0407     1.0093 C.2          1    LIG   0.0000
   9 N9           6.5122     1.1368     0.9913 N.2          1    LIG   0.0000
  10 C10          5.1970     1.0621     0.9959 C.2          1    LIG   0.0000
  11 C11          4.4882     2.2932     0.9793 C.2          1    LIG   0.0000
  12 C12          5.1400     3.5886     0.9590 C.ar         1    LIG   0.0000
  13 C13          6.1416     3.8406     0.0271 C.ar         1    LIG   0.0000
  14 C14          6.7618     5.0855     0.0153 C.ar         1    LIG   0.0000
  15 C15          6.3788     6.0630     0.9286 C.ar         1    LIG   0.0000
  16 C16          5.3760     5.8024     1.8569 C.ar         1    LIG   0.0000
  17 C17          4.7510     4.5596     1.8760 C.ar         1    LIG   0.0000
  18 C18          3.1219     2.2472     0.9830 C.2          1    LIG   0.0000
  19 C19          2.4486     1.0000     1.0000 C.2          1    LIG   0.0000
  20 C20          1.0000     1.0000     1.0000 C.2          1    LIG   0.0000
  21 O21          0.4000     0.0933     0.4921 O.2          1    LIG   0.0000
  22 C22          0.2749     2.0958     1.6138 C.ar         1    LIG   0.0000
  23 C23         -0.0733     3.2098     0.8568 C.ar         1    LIG   0.0000
  24 C24         -0.7687     4.2609     1.4450 C.ar         1    LIG   0.0000
  25 C25         -1.1178     4.1979     2.7903 C.ar         1    LIG   0.0000
  26 C26         -0.7703     3.0835     3.5476 C.ar         1    LIG   0.0000
  27 C27         -0.0734     2.0332     2.9601 C.ar         1    LIG   0.0000
  28 O28          0.2509     0.9650     3.7197 O.3          1    LIG   0.0000
  29 C29          3.1787    -0.1575     1.0151 C.2          1    LIG   0.0000
  30 N30          4.5522    -0.1508     1.0153 N.pl3        1    LIG   0.0000
  31 C31          5.2730    -1.3220     1.0361 C.2          1    LIG   0.0000
  32 O32          4.6992    -2.4042     1.0564 O.2          1    LIG   0.0000
  33 C33          6.6972    -1.3034     1.0336 C.2          1    LIG   0.0000
  34 H            6.4586    -3.9683     1.0829 H            1    LIG   0.0000
  35 H            7.8509    -4.2275     0.2700 H            1    LIG   0.0000
  36 H            7.8524    -4.1956     1.9027 H            1    LIG   0.0000
  37 H            6.4126     3.1345    -0.6270 H            1    LIG   0.0000
  38 H            7.4833     5.2781    -0.6499 H            1    LIG   0.0000
  39 H            6.8265     6.9571     0.9176 H            1    LIG   0.0000
  40 H            5.1044     6.5086     2.5107 H            1    LIG   0.0000
  41 H            4.0300     4.3664     2.5415 H            1    LIG   0.0000
  42 H            2.5952     3.0972     0.9737 H            1    LIG   0.0000
  43 H            0.1765     3.2549    -0.1104 H            1    LIG   0.0000
  44 H           -1.0179     5.0620     0.9009 H            1    LIG   0.0000
  45 H           -1.6184     4.9534     3.2129 H            1    LIG   0.0000
  46 H           -1.0217     3.0379     4.5145 H            1    LIG   0.0000
  47 H           -0.0092     0.9405     4.6850 H            1    LIG   0.0000
  48 H            2.6978    -1.0342     1.0263 H            1    LIG   0.0000
@<TRIPOS>BOND
   1        1        2 1
   2        2        3 2
   3        3        4 1
   4        4        5 ar
   5        4        6 ar
   6        3        7 1
   7        7        8 1
   8        8        9 1
   9        9       10 2
  10       10       11 1
  11       11       12 1
  12       12       13 ar
  13       13       14 ar
  14       14       15 ar
  15       15       16 ar
  16       16       17 ar
  17       17       12 ar
  18       11       18 2
  19       18       19 1
  20       19       20 1
  21       20       21 2
  22       20       22 1
  23       22       23 ar
  24       23       24 ar
  25       24       25 ar
  26       25       26 ar
  27       26       27 ar
  28       27       22 ar
  29       27       28 1
  30       19       29 2
  31       29       30 1
  32       30       10 1
  33       30       31 1
  34       31       32 2
  35       31       33 1
  36       33        2 1
  37       33        8 2
  38        1       34 1
  39        1       35 1
  40        1       36 1
  41       13       37 1
  42       14       38 1
  43       15       39 1
  44       16       40 1
  45       17       41 1
  46       18       42 1
  47       23       43 1
  48       24       44 1
  49       25       45 1
  50       26       46 1
  51       28       47 1
  52       29       48 1

@<TRIPOS>MOLECULE

  48   52
SMALL
USER_CHARGES
@<TRIPOS>ATOM
   1 C1           7.4447    -3.1195     3.4693 C.3          1    LIG   0.0000
   2 C2           7.7061    -1.8381     2.6955 C.2          1    LIG   0.0000
   3 C3           8.9829    -1.4259     2.4453 C.2          1    LIG   0.0000
   4 C4          10.2006    -2.1007     2.8518 C.2          1    LIG   0.0000
   5 O5          11.3134    -1.6156     2.5537 O.co2        1    LIG   0.0000
   6 O6          10.1394    -3.1333     3.4796 O.co2        1    LIG  -1.0000
   7 S7           8.8941     0.0278     1.5619 S.3          1    LIG   0.0000
   8 C8           7.1937     0.1034     1.5284 C.2          1    LIG   0.0000
   9 N9           6.5122     1.1141     0.9240 N.2          1    LIG   0.0000
  10 C10          5.1970     1.0517     0.9654 C.2          1    LIG   0.0000
  11 C11          4.4882     2.1096     0.3355 C.2          1    LIG   0.0000
  12 C12          5.1400     3.2213    -0.3298 C.ar         1    LIG   0.0000
  13 C13          6.1416     2.9736    -1.2628 C.ar         1    LIG   0.0000
  14 C14          6.7618     4.0457    -1.8955 C.ar         1    LIG   0.0000
  15 C15          6.3788     5.3490    -1.5933 C.ar         1    LIG   0.0000
  16 C16          5.3760     5.5874    -0.6591 C.ar         1    LIG   0.0000
  17 C17          4.7510     4.5207    -0.0212 C.ar         1    LIG   0.0000
  18 C18          3.1219     2.0716     0.3617 C.2          1    LIG   0.0000
  19 C19          2.4486     1.0000     1.0000 C.2          1    LIG   0.0000
  20 C20          1.0000     1.0000     1.0000 C.2          1    LIG   0.0000
  21 O21          0.4000     0.0933     0.4921 O.2          1    LIG   0.0000
  22 C22          0.2749     2.0958     1.6138 C.ar         1    LIG   0.0000
  23 C23          0.9705     3.1471     2.2021 C.ar         1    LIG   0.0000
  24 C24          0.2755     4.1982     2.7907 C.ar         1    LIG   0.0000
  25 C25         -1.1157     4.1993     2.7902 C.ar         1    LIG   0.0000
  26 C26         -1.8120     3.1483     2.2013 C.ar         1    LIG   0.0000
  27 C27         -1.1172     2.0964     1.6141 C.ar         1    LIG   0.0000
  28 O28         -1.8193     1.0899     1.0509 O.3          1    LIG   0.0000
  29 C29          3.1787     0.0051     1.5918 C.2          1    LIG   0.0000
  30 N30          4.5522     0.0110     1.5886 N.pl3        1    LIG   0.0000
  31 C31          5.2730    -0.9928     2.1923 C.2          1    LIG   0.0000
  32 O32          4.6992    -1.9200     2.7509 O.2          1    LIG   0.0000
  33 C33          6.6972    -0.9780     2.1808 C.2          1    LIG   0.0000
  34 H            6.4586    -3.2612     3.5559 H            1    LIG   0.0000
  35 H            7.8509    -3.8922     2.9816 H            1    LIG   0.0000
  36 H            7.8524    -3.0482     4.3796 H            1    LIG   0.0000
  37 H            6.4126     2.0350    -1.4763 H            1    LIG   0.0000
  38 H            7.4833     3.8800    -2.5679 H            1    LIG   0.0000
  39 H            6.8265     6.1178    -2.0499 H            1    LIG   0.0000
  40 H            5.1044     6.5259    -0.4460 H            1    LIG   0.0000
  41 H            4.0300     4.6862     0.6518 H            1    LIG   0.0000
  42 H            2.5952     2.8031    -0.0714 H            1    LIG   0.0000
  43 H            1.9705     3.1471     2.2017 H            1    LIG   0.0000
  44 H            0.7759     4.9532     3.2145 H            1    LIG   0.0000
  45 H           -1.6153     4.9554     3.2129 H            1    LIG   0.0000
  46 H           -2.8120     3.1494     2.2003 H            1    LIG   0.0000
  47 H           -2.8191     1.1102     1.0623 H            1    LIG   0.0000
  48 H            2.6978    -0.7486     2.0398 H            1    LIG   0.0000
@<TRIPOS>BOND
   1        1        2 1
   2        2        3 2
   3        3        4 1
   4        4        5 ar
   5        4        6 ar
   6        3        7 1
   7        7        8 1
   8        8        9 1
   9        9       10 2
  10       10       11 1
  11       11       12 1
  12       12       13 ar
  13       13       14 ar
  14       14       15 ar
  15       15       16 ar
  16       16       17 ar
  17       17       12 ar
  18       11       18 2
  19       18       19 1
  20       19       20 1
  21       20       21 2
  22       20       22 1
  23       22       23 ar
  24       23       24 ar
  25       24       25 ar
  26       25       26 ar
  27       26       27 ar
  28       27       22 ar
  29       27       28 1
  30       19       29 2
  31       29       30 1
  32       30       10 1
  33       30       31 1
  34       31       32 2
  35       31       33 1
  36       33        2 1
  37       33        8 2
  38        1       34 1
  39        1       35 1
  40        1       36 1
  41       13       37 1
  42       14       38 1
  43       15       39 1
  44       16       40 1
  45       17       41 1
  46       18       42 1
  47       23       43 1
  48       24       44 1
  49       25       45 1
  50       26       46 1
  51       28       47 1
  52       29       48 1

@<TRIPOS>MOLECULE

  48   52
SMALL
USER_CHARGES
@<TRIPOS>ATOM
   1 C1           7.4447    -1.4693    -3.1195 C.3          1    LIG   0.0000
   2 C2           7.7061    -0.6955    -1.8381 C.2          1    LIG   0.0000
   3 C3           8.9829    -0.4453    -1.4259 C.2          1    LIG   0.0000
   4 C4          10.2006    -0.8518    -2.1007 C.2          1    LIG   0.0000
   5 O5          11.0218    -1.5915    -1.5166 O.co2        1    LIG   0.0000
   6 O6          10.4217    -0.4750    -3.2291 O.co2        1    LIG  -1.0000
   7 S7           8.8941     0.4381     0.0278 S.3          1    LIG   0.0000
   8 C8           7.1937     0.4716     0.1034 C.2          1    LIG   0.0000
   9 N9           6.5122     1.0760     1.1141 N.2          1    LIG   0.0000
  10 C10          5.1970     1.0346     1.0517 C.2          1    LIG   0.0000
  11 C11          4.4882     1.6645     2.1096 C.2          1    LIG   0.0000
  12 C12          5.1400     2.3298     3.2213 C.ar         1    LIG   0.0000
  13 C13          6.1416     3.2628     2.9736 C.ar         1    LIG   0.0000
  14 C14          6.7618     3.8955     4.0457 C.ar         1    LIG   0.0000
  15 C15          6.3788     3.5933     5.3490 C.ar         1    LIG   0.0000
  16 C16          5.3760     2.6591     5.5874 C.ar         1    LIG   0.0000
  17 C17          4.7510     2.0212     4.5207 C.ar         1    LIG   0.0000
  18 C18          3.1219     1.6383     2.0716 C.2          1    LIG   0.0000
  19 C19          2.4486     1.0000     1.0000 C.2          1    LIG   0.0000
  20 C20          1.0000     1.0000     1.0000 C.2          1    LIG   0.0000
  21 O21          0.4000     0.0933     0.4921 O.2          1    LIG   0.0000
  22 C22          0.2749     2.0958     1.6138 C.ar         1    LIG   0.0000
  23 C23         -0.0724     2.0327     2.9594 C.ar         1    LIG   0.0000
  24 C24         -0.7678     3.0834     3.5484 C.ar         1    LIG   0.0000
  25 C25         -1.1150     4.1985     2.7925 C.ar         1    LIG   0.0000
  26 C26         -0.7673     4.2623     1.4467 C.ar         1    LIG   0.0000
  27 C27         -0.0734     3.2111     0.8571 C.ar         1    LIG   0.0000
  28 O28          0.2500     3.3004    -0.4508 O.3          1    LIG   0.0000
  29 C29          3.1787     0.4082     0.0051 C.2          1    LIG   0.0000
  30 N30          4.5522     0.4114     0.0110 N.pl3        1    LIG   0.0000
  31 C31          5.2730    -0.1923    -0.9928 C.2          1    LIG   0.0000
  32 O32          4.6992    -0.7509    -1.9200 O.2          1    LIG   0.0000
  33 C33          6.6972    -0.1808    -0.9780 C.2          1    LIG   0.0000
  34 H            6.4586    -1.5559    -3.2612 H            1    LIG   0.0000
  35 H            7.8509    -0.9816    -3.8922 H            1    LIG   0.0000
  36 H            7.8524    -2.3796    -3.0482 H            1    LIG   0.0000
  37 H            6.4126     3.4763     2.0350 H            1    LIG   0.0000
  38 H            7.4833     4.5679     3.8800 H            1    LIG   0.0000
  39 H            6.8265     4.0499     6.1178 H            1    LIG   0.0000
  40 H            5.1044     2.4460     6.5259 H            1    LIG   0.0000
  41 H            4.0300     1.3482     4.6862 H            1    LIG   0.0000
  42 H            2.5952     2.0714     2.8031 H            1    LIG   0.0000
  43 H            0.1779     1.2318     3.5033 H            1    LIG   0.0000
  44 H           -1.0182     3.0372     4.5154 H            1    LIG   0.0000
  45 H           -1.6144     4.9541     3.2163 H            1    LIG   0.0000
  46 H           -1.0163     5.0641     0.9034 H            1    LIG   0.0000
  47 H           -0.0100     4.1108    -0.9759 H            1    LIG   0.0000
  48 H            2.6978    -0.0398    -0.7486 H            1    LIG   0.0000
@<TRIPOS>BOND
   1        1        2 1
   2        2        3 2
   3        3        4 1
   4        4        5 ar
   5        4        6 ar
   6        3        7 1
   7        7        8 1
   8        8        9 1
   9        9       10 2
  10       10       11 1
  11       11       12 1
  12       12       13 ar
  13       13       14 ar
  14       14       15 ar
  15       15       16 ar
  16       16       17 ar
  17       17       12 ar
  18       11       18 2
  19       18       19 1
  20       19       20 1
  21       20       21 2
  22       20       22 1
  23       22       23 ar
  24       23       24 ar
  25       24       25 ar
  26       25       26 ar
  27       26       27 ar
  28       27       22 ar
  29       27       28 1
  30       19       29 2
  31       29       30 1
  32       30       10 1
  33       30       31 1
  34       31       32 2
  35       31       33 1
  36       33        2 1
  37       33        8 2
  38        1       34 1
  39        1       35 1
  40        1       36 1
  41       13       37 1
  42       14       38 1
  43       15       39 1
  44       16       40 1
  45       17       41 1
  46       18       42 1
  47       23       43 1
  48       24       44 1
  49       25       45 1
  50       26       46 1
  51       28       47 1
  52       29       48 1

@<TRIPOS>MOLECULE

  48   52
SMALL
USER_CHARGES
@<TRIPOS>ATOM
   1 C1           7.4447    -1.4693    -3.1195 C.3          1    LIG   0.0000
   2 C2           7.7061    -0.6955    -1.8381 C.2          1    LIG   0.0000
   3 C3           8.9829    -0.4453    -1.4259 C.2          1    LIG   0.0000
   4 C4          10.2006    -0.8518    -2.1007 C.2          1    LIG   0.0000
   5 O5          11.0218    -1.5915    -1.5166 O.co2        1    LIG   0.0000
   6 O6          10.4217    -0.4750    -3.2291 O.co2        1    LIG  -1.0000
   7 S7           8.8941     0.4381     0.0278 S.3          1    LIG   0.0000
   8 C8           7.1937     0.4716     0.1034 C.2          1    LIG   0.0000
   9 N9           6.5122     1.0760     1.1141 N.2          1    LIG   0.0000
  10 C10          5.1970     1.0346     1.0517 C.2          1    LIG   0.0000
  11 C11          4.4882     1.6645     2.1096 C.2          1    LIG   0.0000
  12 C12          5.1400     2.3298     3.2213 C.ar         1    LIG   0.0000
  13 C13          6.1416     3.2628     2.9736 C.ar         1    LIG   0.0000
  14 C14          6.7618     3.8955     4.0457 C.ar         1    LIG   0.0000
  15 C15          6.3788     3.5933     5.3490 C.ar         1    LIG   0.0000
  16 C16          5.3760     2.6591     5.5874 C.ar         1    LIG   0.0000
  17 C17          4.7510     2.0212     4.5207 C.ar         1    LIG   0.0000
  18 C18          3.1219     1.6383     2.0716 C.2          1    LIG   0.0000
  19 C19          2.4486     1.0000     1.0000 C.2          1    LIG   0.0000
  20 C20          1.0000     1.0000     1.0000 C.2          1    LIG   0.0000
  21 O21          0.4000     0.0933     0.4921 O.2          1    LIG   0.0000
  22 C22          0.2749     2.0958     1.6138 C.ar         1    LIG   0.0000
  23 C23         -0.0733     3.2098     0.8568 C.ar         1    LIG   0.0000
  24 C24         -0.7687     4.2609     1.4450 C.ar         1    LIG   0.0000
  25 C25         -1.1178     4.1979     2.7903 C.ar         1    LIG   0.0000
  26 C26         -0.7703     3.0835     3.5476 C.ar         1    LIG   0.0000
  27 C27         -0.0734     2.0332     2.9601 C.ar         1    LIG   0.0000
  28 O28          0.2509     0.9650     3.7197 O.3          1    LIG   0.0000
  29 C29          3.1787     0.4082     0.0051 C.2          1    LIG   0.0000
  30 N30          4.5522     0.4114     0.0110 N.pl3        1    LIG   0.0000
  31 C31          5.2730    -0.1923    -0.9928 C.2          1    LIG   0.0000
  32 O32          4.6992    -0.7509    -1.9200 O.2          1    LIG   0.0000
  33 C33          6.6972    -0.1808    -0.9780 C.2          1    LIG   0.0000
  34 H            6.4586    -1.5559    -3.2612 H            1    LIG   0.0000
  35 H            7.8509    -0.9816    -3.8922 H            1    LIG   0.0000
  36 H            7.8524    -2.3796    -3.0482 H            1    LIG   0.0000
  37 H            6.4126     3.4763     2.0350 H            1    LIG   0.0000
  38 H            7.4833     4.5679     3.8800 H            1    LIG   0.0000
  39 H            6.8265     4.0499     6.1178 H            1    LIG   0.0000
  40 H            5.1044     2.4460     6.5259 H            1    LIG   0.0000
  41 H            4.0300     1.3482     4.6862 H            1    LIG   0.0000
  42 H            2.5952     2.0714     2.8031 H            1    LIG   0.0000
  43 H            0.1765     3.2549    -0.1104 H            1    LIG   0.0000
  44 H           -1.0179     5.0620     0.9009 H            1    LIG   0.0000
  45 H           -1.6184     4.9534     3.2129 H            1    LIG   0.0000
  46 H           -1.0217     3.0379     4.5145 H            1    LIG   0.0000
  47 H           -0.0092     0.9405     4.6850 H            1    LIG   0.0000
  48 H            2.6978    -0.0398    -0.7486 H            1    LIG   0.0000
@<TRIPOS>BOND
   1        1        2 1
   2        2        3 2
   3        3        4 1
   4        4        5 ar
   5        4        6 ar
   6        3        7 1
   7        7        8 1
   8        8        9 1
   9        9       10 2
  10       10       11 1
  11       11       12 1
  12       12       13 ar
  13       13       14 ar
  14       14       15 ar
  15       15       16 ar
  16       16       17 ar
  17       17       12 ar
  18       11       18 2
  19       18       19 1
  20       19       20 1
  21       20       21 2
  22       20       22 1
  23       22       23 ar
  24       23       24 ar
  25       24       25 ar
  26       25       26 ar
  27       26       27 ar
  28       27       22 ar
  29       27       28 1
  30       19       29 2
  31       29       30 1
  32       30       10 1
  33       30       31 1
  34       31       32 2
  35       31       33 1
  36       33        2 1
  37       33        8 2
  38        1       34 1
  39        1       35 1
  40        1       36 1
  41       13       37 1
  42       14       38 1
  43       15       39 1
  44       16       40 1
  45       17       41 1
  46       18       42 1
  47       23       43 1
  48       24       44 1
  49       25       45 1
  50       26       46 1
  51       28       47 1
  52       29       48 1

@<TRIPOS>MOLECULE

  48   52
SMALL
USER_CHARGES
@<TRIPOS>ATOM
   1 C1           7.4447     0.9213    -3.8022 C.3          1    LIG   0.0000
   2 C2           7.7061     0.9507    -2.3056 C.2          1    LIG   0.0000
   3 C3           8.9829     0.9613    -1.8235 C.2          1    LIG   0.0000
   4 C4          10.2006     0.9466    -2.6112 C.2          1    LIG   0.0000
   5 O5          11.0218     0.0140    -2.4752 O.co2        1    LIG   0.0000
   6 O6          10.4217     1.8371    -3.4000 O.co2        1    LIG  -1.0000
   7 S7           8.8941     0.9994    -0.1229 S.3          1    LIG   0.0000
   8 C8           7.1937     0.9907    -0.0407 C.2          1    LIG   0.0000
   9 N9           6.5122     1.0087     1.1368 N.2          1    LIG   0.0000
  10 C10          5.1970     1.0041     1.0621 C.2          1    LIG   0.0000
  11 C11          4.4882     1.0207     2.2932 C.2          1    LIG   0.0000
  12 C12          5.1400     1.0410     3.5886 C.ar         1    LIG   0.0000
  13 C13          6.1416     1.9729     3.8406 C.ar         1    LIG   0.0000
  14 C14          6.7618     1.9847     5.0855 C.ar         1    LIG   0.0000
  15 C15          6.3788     1.0714     6.0630 C.ar         1    LIG   0.0000
  16 C16          5.3760     0.1431     5.8024 C.ar         1    LIG   0.0000
  17 C17          4.7510     0.1240     4.5596 C.ar         1    LIG   0.0000
  18 C18          3.1219     1.0170     2.2472 C.2          1    LIG   0.0000
  19 C19          2.4486     1.0000     1.0000 C.2          1    LIG   0.0000
  20 C20          1.0000     1.0000     1.0000 C.2          1    LIG   0.0000
  21 O21          0.4000     0.0933     0.4921 O.2          1    LIG   0.0000
  22 C22          0.2749     2.0958     1.6138 C.ar         1    LIG   0.0000
  23 C23          0.9705     3.1471     2.2021 C.ar         1    LIG   0.0000
  24 C24          0.2755     4.1982     2.7907 C.ar         1    LIG   0.0000
  25 C25         -1.1157     4.1993     2.7902 C.ar         1    LIG   0.0000
  26 C26         -1.8120     3.1483     2.2013 C.ar         1    LIG   0.0000
  27 C27         -1.1172     2.0964     1.6141 C.ar         1    LIG   0.0000
  28 O28         -1.8193     1.0899     1.0509 O.3          1    LIG   0.0000
  29 C29          3.1787     0.9849    -0.1575 C.2          1    LIG   0.0000
  30 N30          4.5522     0.9847    -0.1508 N.pl3        1    LIG   0.0000
  31 C31          5.2730     0.9639    -1.3220 C.2          1    LIG   0.0000
  32 O32          4.6992     0.9436    -2.4042 O.2          1    LIG   0.0000
  33 C33          6.6972     0.9664    -1.3034 C.2          1    LIG   0.0000
  34 H            6.4586     0.9171    -3.9683 H            1    LIG   0.0000
  35 H            7.8509     1.7300    -4.2275 H            1    LIG   0.0000
  36 H            7.8524     0.0973    -4.1956 H            1    LIG   0.0000
  37 H            6.4126     2.6270     3.1345 H            1    LIG   0.0000
  38 H            7.4833     2.6499     5.2781 H            1    LIG   0.0000
  39 H            6.8265     1.0824     6.9571 H            1    LIG   0.0000
  40 H            5.1044    -0.5107     6.5086 H            1    LIG   0.0000
  41 H            4.0300    -0.5415     4.3664 H            1    LIG   0.0000
  42 H            2.5952     1.0263     3.0972 H            1    LIG   0.0000
  43 H            1.9705     3.1471     2.2017 H            1    LIG   0.0000
  44 H            0.7759     4.9532     3.2145 H            1    LIG   0.0000
  45 H           -1.6153     4.9554     3.2129 H            1    LIG   0.0000
  46 H           -2.8120     3.1494     2.2003 H            1    LIG   0.0000
  47 H           -2.8191     1.1102     1.0623 H            1    LIG   0.0000
  48 H            2.6978     0.9737    -1.0342 H            1    LIG   0.0000
@<TRIPOS>BOND
   1        1        2 1
   2        2        3 2
   3        3        4 1
   4        4        5 ar
   5        4        6 ar
   6        3        7 1
   7        7        8 1
   8        8        9 1
   9        9       10 2
  10       10       11 1
  11       11       12 1
  12       12       13 ar
  13       13       14 ar
  14       14       15 ar
  15       15       16 ar
  16       16       17 ar
  17       17       12 ar
  18       11       18 2
  19       18       19 1
  20       19       20 1
  21       20       21 2
  22       20       22 1
  23       22       23 ar
  24       23       24 ar
  25       24       25 ar
  26       25       26 ar
  27       26       27 ar
  28       27       22 ar
  29       27       28 1
  30       19       29 2
  31       29       30 1
  32       30       10 1
  33       30       31 1
  34       31       32 2
  35       31       33 1
  36       33        2 1
  37       33        8 2
  38        1       34 1
  39        1       35 1
  40        1       36 1
  41       13       37 1
  42       14       38 1
  43       15       39 1
  44       16       40 1
  45       17       41 1
  46       18       42 1
  47       23       43 1
  48       24       44 1
  49       25       45 1
  50       26       46 1
  51       28       47 1
  52       29       48 1

@<TRIPOS>MOLECULE

  48   52
SMALL
USER_CHARGES
@<TRIPOS>ATOM
   1 C1           7.4447     5.8022     0.9213 C.3          1    LIG   0.0000
   2 C2           7.7061     4.3056     0.9507 C.2          1    LIG   0.0000
   3 C3           8.9829     3.8235     0.9613 C.2          1    LIG   0.0000
   4 C4          10.2006     4.6112     0.9466 C.2          1    LIG   0.0000
   5 O5          11.3134     4.0420     0.9623 O.co2        1    LIG   0.0000
   6 O6          10.1394     5.8194     0.9192 O.co2        1    LIG  -1.0000
   7 S7           8.8941     2.1229     0.9994 S.3          1    LIG   0.0000
   8 C8           7.1937     2.0407     0.9907 C.2          1    LIG   0.0000
   9 N9           6.5122     0.8632     1.0087 N.2          1    LIG   0.0000
  10 C10          5.1970     0.9379     1.0041 C.2          1    LIG   0.0000
  11 C11          4.4882    -0.2932     1.0207 C.2          1    LIG   0.0000
  12 C12          5.1400    -1.5886     1.0410 C.ar         1    LIG   0.0000
  13 C13          6.1416    -1.8406     1.9729 C.ar         1    LIG   0.0000
  14 C14          6.7618    -3.0855     1.9847 C.ar         1    LIG   0.0000
  15 C15          6.3788    -4.0630     1.0714 C.ar         1    LIG   0.0000
  16 C16          5.3760    -3.8024     0.1431 C.ar         1    LIG   0.0000
  17 C17          4.7510    -2.5596     0.1240 C.ar         1    LIG   0.0000
  18 C18          3.1219    -0.2472     1.0170 C.2          1    LIG   0.0000
  19 C19          2.4486     1.0000     1.0000 C.2          1    LIG   0.0000
  20 C20          1.0000     1.0000     1.0000 C.2          1    LIG   0.0000
  21 O21          0.4000     0.0933     0.4921 O.2          1    LIG   0.0000
  22 C22          0.2749     2.0958     1.6138 C.ar         1    LIG   0.0000
  23 C23         -0.0724     2.0327     2.9594 C.ar         1    LIG   0.0000
  24 C24         -0.7678     3.0834     3.5484 C.ar         1    LIG   0.0000
  25 C25         -1.1150     4.1985     2.7925 C.ar         1    LIG   0.0000
  26 C26         -0.7673     4.2623     1.4467 C.ar         1    LIG   0.0000
  27 C27         -0.0734     3.2111     0.8571 C.ar         1    LIG   0.0000
  28 O28          0.2500     3.3004    -0.4508 O.3          1    LIG   0.0000
  29 C29          3.1787     2.1575     0.9849 C.2          1    LIG   0.0000
  30 N30          4.5522     2.1508     0.9847 N.pl3        1    LIG   0.0000
  31 C31          5.2730     3.3220     0.9639 C.2          1    LIG   0.0000
  32 O32          4.6992     4.4042     0.9436 O.2          1    LIG   0.0000
  33 C33          6.6972     3.3034     0.9664 C.2          1    LIG   0.0000
  34 H            6.4586     5.9683     0.9171 H            1    LIG   0.0000
  35 H            7.8509     6.2275     1.7300 H            1    LIG   0.0000
  36 H            7.8524     6.1956     0.0973 H            1    LIG   0.0000
  37 H            6.4126    -1.1345     2.6270 H            1    LIG   0.0000
  38 H            7.4833    -3.2781     2.6499 H            1    LIG   0.0000
  39 H            6.8265    -4.9571     1.0824 H            1    LIG   0.0000
  40 H            5.1044    -4.5086    -0.5107 H            1    LIG   0.0000
  41 H            4.0300    -2.3664    -0.5415 H            1    LIG   0.0000
  42 H            2.5952    -1.0972     1.0263 H            1    LIG   0.0000
  43 H            0.1779     1.2318     3.5033 H            1    LIG   0.0000
  44 H           -1.0182     3.0372     4.5154 H            1    LIG   0.0000
  45 H           -1.6144     4.9541     3.2163 H            1    LIG   0.0000
  46 H           -1.0163     5.0641     0.9034 H            1    LIG   0.0000
  47 H           -0.0100     4.1108    -0.9759 H            1    LIG   0.0000
  48 H            2.6978     3.0342     0.9737 H            1    LIG   0.0000
@<TRIPOS>BOND
   1        1        2 1
   2        2        3 2
   3        3        4 1
   4        4        5 ar
   5        4        6 ar
   6        3        7 1
   7        7        8 1
   8        8        9 1
   9        9       10 2
  10       10       11 1
  11       11       12 1
  12       12       13 ar
  13       13       14 ar
  14       14       15 ar
  15       15       16 ar
  16       16       17 ar
  17       17       12 ar
  18       11       18 2
  19       18       19 1
  20       19       20 1
  21       20       21 2
  22       20       22 1
  23       22       23 ar
  24       23       24 ar
  25       24       25 ar
  26       25       26 ar
  27       26       27 ar
  28       27       22 ar
  29       27       28 1
  30       19       29 2
  31       29       30 1
  32       30       10 1
  33       30       31 1
  34       31       32 2
  35       31       33 1
  36       33        2 1
  37       33        8 2
  38        1       34 1
  39        1       35 1
  40        1       36 1
  41       13       37 1
  42       14       38 1
  43       15       39 1
  44       16       40 1
  45       17       41 1
  46       18       42 1
  47       23       43 1
  48       24       44 1
  49       25       45 1
  50       26       46 1
  51       28       47 1
  52       29       48 1

@<TRIPOS>MOLECULE

  48   52
SMALL
USER_CHARGES
@<TRIPOS>ATOM
   1 C1           7.4447     5.8022     0.9213 C.3          1    LIG   0.0000
   2 C2           7.7061     4.3056     0.9507 C.2          1    LIG   0.0000
   3 C3           8.9829     3.8235     0.9613 C.2          1    LIG   0.0000
   4 C4          10.2006     4.6112     0.9466 C.2          1    LIG   0.0000
   5 O5          11.3134     4.0420     0.9623 O.co2        1    LIG   0.0000
   6 O6          10.1394     5.8194     0.9192 O.co2        1    LIG  -1.0000
   7 S7           8.8941     2.1229     0.9994 S.3          1    LIG   0.0000
   8 C8           7.1937     2.0407     0.9907 C.2          1    LIG   0.0000
   9 N9           6.5122     0.8632     1.0087 N.2          1    LIG   0.0000
  10 C10          5.1970     0.9379     1.0041 C.2          1    LIG   0.0000
  11 C11          4.4882    -0.2932     1.0207 C.2          1    LIG   0.0000
  12 C12          5.1400    -1.5886     1.0410 C.ar         1    LIG   0.0000
  13 C13          6.1416    -1.8406     1.9729 C.ar         1    LIG   0.0000
  14 C14          6.7618    -3.0855     1.9847 C.ar         1    LIG   0.0000
  15 C15          6.3788    -4.0630     1.0714 C.ar         1    LIG   0.0000
  16 C16          5.3760    -3.8024     0.1431 C.ar         1    LIG   0.0000
  17 C17          4.7510    -2.5596     0.1240 C.ar         1    LIG   0.0000
  18 C18          3.1219    -0.2472     1.0170 C.2          1    LIG   0.0000
  19 C19          2.4486     1.0000     1.0000 C.2          1    LIG   0.0000
  20 C20          1.0000     1.0000     1.0000 C.2          1    LIG   0.0000
  21 O21          0.4000     0.0933     0.4921 O.2          1    LIG   0.0000
  22 C22          0.2749     2.0958     1.6138 C.ar         1    LIG   0.0000
  23 C23         -0.0733     3.2098     0.8568 C.ar         1    LIG   0.0000
  24 C24         -0.7687     4.2609     1.4450 C.ar         1    LIG   0.0000
  25 C25         -1.1178     4.1979     2.7903 C.ar         1    LIG   0.0000
  26 C26         -0.7703     3.0835     3.5476 C.ar         1    LIG   0.0000
  27 C27         -0.0734     2.0332     2.9601 C.ar         1    LIG   0.0000
  28 O28          0.2509     0.9650     3.7197 O.3          1    LIG   0.0000
  29 C29          3.1787     2.1575     0.9849 C.2          1    LIG   0.0000
  30 N30          4.5522     2.1508     0.9847 N.pl3        1    LIG   0.0000
  31 C31          5.2730     3.3220     0.9639 C.2          1    LIG   0.0000
  32 O32          4.6992     4.4042     0.9436 O.2          1    LIG   0.0000
  33 C33          6.6972     3.3034     0.9664 C.2          1    LIG   0.0000
  34 H            6.4586     5.9683     0.9171 H            1    LIG   0.0000
  35 H            7.8509     6.2275     1.7300 H            1    LIG   0.0000
  36 H            7.8524     6.1956     0.0973 H            1    LIG   0.0000
  37 H            6.4126    -1.1345     2.6270 H            1    LIG   0.0000
  38 H            7.4833    -3.2781     2.6499 H            1    LIG   0.0000
  39 H            6.8265    -4.9571     1.0824 H            1    LIG   0.0000
  40 H            5.1044    -4.5086    -0.5107 H            1    LIG   0.0000
  41 H            4.0300    -2.3664    -0.5415 H            1    LIG   0.0000
  42 H            2.5952    -1.0972     1.0263 H            1    LIG   0.0000
  43 H            0.1765     3.2549    -0.1104 H            1    LIG   0.0000
  44 H           -1.0179     5.0620     0.9009 H            1    LIG   0.0000
  45 H           -1.6184     4.9534     3.2129 H            1    LIG   0.0000
  46 H           -1.0217     3.0379     4.5145 H            1    LIG   0.0000
  47 H           -0.0092     0.9405     4.6850 H            1    LIG   0.0000
  48 H            2.6978     3.0342     0.9737 H            1    LIG   0.0000
@<TRIPOS>BOND
   1        1        2 1
   2        2        3 2
   3        3        4 1
   4        4        5 ar
   5        4        6 ar
   6        3        7 1
   7        7        8 1
   8        8        9 1
   9        9       10 2
  10       10       11 1
  11       11       12 1
  12       12       13 ar
  13       13       14 ar
  14       14       15 ar
  15       15       16 ar
  16       16       17 ar
  17       17       12 ar
  18       11       18 2
  19       18       19 1
  20       19       20 1
  21       20       21 2
  22       20       22 1
  23       22       23 ar
  24       23       24 ar
  25       24       25 ar
  26       25       26 ar
  27       26       27 ar
  28       27       22 ar
  29       27       28 1
  30       19       29 2
  31       29       30 1
  32       30       10 1
  33       30       31 1
  34       31       32 2
  35       31       33 1
  36       33        2 1
  37       33        8 2
  38        1       34 1
  39        1       35 1
  40        1       36 1
  41       13       37 1
  42       14       38 1
  43       15       39 1
  44       16       40 1
  45       17       41 1
  46       18       42 1
  47       23       43 1
  48       24       44 1
  49       25       45 1
  50       26       46 1
  51       28       47 1
  52       29       48 1

@<TRIPOS>MOLECULE

  48   52
SMALL
USER_CHARGES
@<TRIPOS>ATOM
   1 C1           7.4447     5.1195    -1.4693 C.3          1    LIG   0.0000
   2 C2           7.7061     3.8381    -0.6955 C.2          1    LIG   0.0000
   3 C3           8.9829     3.4259    -0.4453 C.2          1    LIG   0.0000
   4 C4          10.2006     4.1007    -0.8518 C.2          1    LIG   0.0000
   5 O5          11.0218     3.5166    -1.5915 O.co2        1    LIG   0.0000
   6 O6          10.4217     5.2291    -0.4750 O.co2        1    LIG  -1.0000
   7 S7           8.8941     1.9722     0.4381 S.3          1    LIG   0.0000
   8 C8           7.1937     1.8966     0.4716 C.2          1    LIG   0.0000
   9 N9           6.5122     0.8859     1.0760 N.2          1    LIG   0.0000
  10 C10          5.1970     0.9483     1.0346 C.2          1    LIG   0.0000
  11 C11          4.4882    -0.1096     1.6645 C.2          1    LIG   0.0000
  12 C12          5.1400    -1.2213     2.3298 C.ar         1    LIG   0.0000
  13 C13          6.1416    -0.9736     3.2628 C.ar         1    LIG   0.0000
  14 C14          6.7618    -2.0457     3.8955 C.ar         1    LIG   0.0000
  15 C15          6.3788    -3.3490     3.5933 C.ar         1    LIG   0.0000
  16 C16          5.3760    -3.5874     2.6591 C.ar         1    LIG   0.0000
  17 C17          4.7510    -2.5207     2.0212 C.ar         1    LIG   0.0000
  18 C18          3.1219    -0.0716     1.6383 C.2          1    LIG   0.0000
  19 C19          2.4486     1.0000     1.0000 C.2          1    LIG   0.0000
  20 C20          1.0000     1.0000     1.0000 C.2          1    LIG   0.0000
  21 O21          0.4000     0.0933     0.4921 O.2          1    LIG   0.0000
  22 C22          0.2749     2.0958     1.6138 C.ar         1    LIG   0.0000
  23 C23          0.9705     3.1471     2.2021 C.ar         1    LIG   0.0000
  24 C24          0.2755     4.1982     2.7907 C.ar         1    LIG   0.0000
  25 C25         -1.1157     4.1993     2.7902 C.ar         1    LIG   0.0000
  26 C26         -1.8120     3.1483     2.2013 C.ar         1    LIG   0.0000
  27 C27         -1.1172     2.0964     1.6141 C.ar         1    LIG   0.0000
  28 O28         -1.8193     1.0899     1.0509 O.3          1    LIG   0.0000
  29 C29          3.1787     1.9949     0.4082 C.2          1    LIG   0.0000
  30 N30          4.5522     1.9890     0.4114 N.pl3        1    LIG   0.0000
  31 C31          5.2730     2.9928    -0.1923 C.2          1    LIG   0.0000
  32 O32          4.6992     3.9200    -0.7509 O.2          1    LIG   0.0000
  33 C33          6.6972     2.9780    -0.1808 C.2          1    LIG   0.0000
  34 H            6.4586     5.2612    -1.5559 H            1    LIG   0.0000
  35 H            7.8509     5.8922    -0.9816 H            1    LIG   0.0000
  36 H            7.8524     5.0482    -2.3796 H            1    LIG   0.0000
  37 H            6.4126    -0.0350     3.4763 H            1    LIG   0.0000
  38 H            7.4833    -1.8800     4.5679 H            1    LIG   0.0000
  39 H            6.8265    -4.1178     4.0499 H            1    LIG   0.0000
  40 H            5.1044    -4.5259     2.4460 H            1    LIG   0.0000
  41 H            4.0300    -2.6862     1.3482 H            1    LIG   0.0000
  42 H            2.5952    -0.8031     2.0714 H            1    LIG   0.0000
  43 H            1.9705     3.1471     2.2017 H            1    LIG   0.0000
  44 H            0.7759     4.9532     3.2145 H            1    LIG   0.0000
  45 H           -1.6153     4.9554     3.2129 H            1    LIG   0.0000
  46 H           -2.8120     3.1494     2.2003 H            1    LIG   0.0000
  47 H           -2.8191     1.1102     1.0623 H            1    LIG   0.0000
  48 H            2.6978     2.7486    -0.0398 H            1    LIG   0.0000
@<TRIPOS>BOND
   1        1        2 1
   2        2        3 2
   3        3        4 1
   4        4        5 ar
   5        4        6 ar
   6        3        7 1
   7        7        8 1
   8        8        9 1
   9        9       10 2
  10       10       11 1
  11       11       12 1
  12       12       13 ar
  13       13       14 ar
  14       14       15 ar
  15       15       16 ar
  16       16       17 ar
  17       17       12 ar
  18       11       18 2
  19       18       19 1
  20       19       20 1
  21       20       21 2
  22       20       22 1
  23       22       23 ar
  24       23       24 ar
  25       24       25 ar
  26       25       26 ar
  27       26       27 ar
  28       27       22 ar
  29       27       28 1
  30       19       29 2
  31       29       30 1
  32       30       10 1
  33       30       31 1
  34       31       32 2
  35       31       33 1
  36       33        2 1
  37       33        8 2
  38        1       34 1
  39        1       35 1
  40        1       36 1
  41       13       37 1
  42       14       38 1
  43       15       39 1
  44       16       40 1
  45       17       41 1
  46       18       42 1
  47       23       43 1
  48       24       44 1
  49       25       45 1
  50       26       46 1
  51       28       47 1
  52       29       48 1

@<TRIPOS>MOLECULE

  48   52
SMALL
USER_CHARGES
@<TRIPOS>ATOM
   1 C1           7.4447     5.1195    -1.4693 C.3          1    LIG   0.0000
   2 C2           7.7061     3.8381    -0.6955 C.2          1    LIG   0.0000
   3 C3           8.9829     3.4259    -0.4453 C.2          1    LIG   0.0000
   4 C4          10.2006     4.1007    -0.8518 C.2          1    LIG   0.0000
   5 O5          11.0218     3.5166    -1.5915 O.co2        1    LIG   0.0000
   6 O6          10.4217     5.2291    -0.4750 O.co2        1    LIG  -1.0000
   7 S7           8.8941     1.9722     0.4381 S.3          1    LIG   0.0000
   8 C8           7.1937     1.8966     0.4716 C.2          1    LIG   0.0000
   9 N9           6.5122     0.8859     1.0760 N.2          1    LIG   0.0000
  10 C10          5.1970     0.9483     1.0346 C.2          1    LIG   0.0000
  11 C11          4.4882    -0.1096     1.6645 C.2          1    LIG   0.0000
  12 C12          5.1400    -1.2213     2.3298 C.ar         1    LIG   0.0000
  13 C13          6.1454    -1.9230     1.6727 C.ar         1    LIG   0.0000
  14 C14          6.7646    -2.9882     2.3180 C.ar         1    LIG   0.0000
  15 C15          6.3772    -3.3418     3.6069 C.ar         1    LIG   0.0000
  16 C16          5.3710    -2.6343     4.2567 C.ar         1    LIG   0.0000
  17 C17          4.7460    -1.5679     3.6181 C.ar         1    LIG   0.0000
  18 C18          3.1219    -0.0716     1.6383 C.2          1    LIG   0.0000
  19 C19          2.4486     1.0000     1.0000 C.2          1    LIG   0.0000
  20 C20          1.0000     1.0000     1.0000 C.2          1    LIG   0.0000
  21 O21          0.4000     0.0933     0.4921 O.2          1    LIG   0.0000
  22 C22          0.2749     2.0958     1.6138 C.ar         1    LIG   0.0000
  23 C23         -0.0724     2.0327     2.9594 C.ar         1    LIG   0.0000
  24 C24         -0.7678     3.0834     3.5484 C.ar         1    LIG   0.0000
  25 C25         -1.1150     4.1985     2.7925 C.ar         1    LIG   0.0000
  26 C26         -0.7673     4.2623     1.4467 C.ar         1    LIG   0.0000
  27 C27         -0.0734     3.2111     0.8571 C.ar         1    LIG   0.0000
  28 O28          0.2500     3.3004    -0.4508 O.3          1    LIG   0.0000
  29 C29          3.1787     1.9949     0.4082 C.2          1    LIG   0.0000
  30 N30          4.5522     1.9890     0.4114 N.pl3        1    LIG   0.0000
  31 C31          5.2730     2.9928    -0.1923 C.2          1    LIG   0.0000
  32 O32          4.6992     3.9200    -0.7509 O.2          1    LIG   0.0000
  33 C33          6.6972     2.9780    -0.1808 C.2          1    LIG   0.0000
  34 H            6.4586     5.2612    -1.5559 H            1    LIG   0.0000
  35 H            7.8509     5.8922    -0.9816 H            1    LIG   0.0000
  36 H            7.8524     5.0482    -2.3796 H            1    LIG   0.0000
  37 H            6.4199    -1.6644     0.7465 H            1    LIG   0.0000
  38 H            7.4884    -3.5002     1.8555 H            1    LIG   0.0000
  39 H            6.8243    -4.1081     4.0683 H            1    LIG   0.0000
  40 H            5.0968    -2.8923     5.1831 H            1    LIG   0.0000
  41 H            4.0216    -1.0562     4.0801 H            1    LIG   0.0000
  42 H            2.5952    -0.8031     2.0714 H            1    LIG   0.0000
  43 H            0.1779     1.2318     3.5033 H            1    LIG   0.0000
  44 H           -1.0182     3.0372     4.5154 H            1    LIG   0.0000
  45 H           -1.6144     4.9541     3.2163 H            1    LIG   0.0000
  46 H           -1.0163     5.0641     0.9034 H            1    LIG   0.0000
  47 H           -0.0100     4.1108    -0.9759 H            1    LIG   0.0000
  48 H            2.6978     2.7486    -0.0398 H            1    LIG   0.0000
@<TRIPOS>BOND
   1        1        2 1
   2        2        3 2
   3        3        4 1
   4        4        5 ar
   5        4        6 ar
   6        3        7 1
   7        7        8 1
   8        8        9 1
   9        9       10 2
  10       10       11 1
  11       11       12 1
  12       12       13 ar
  13       13       14 ar
  14       14       15 ar
  15       15       16 ar
  16       16       17 ar
  17       17       12 ar
  18       11       18 2
  19       18       19 1
  20       19       20 1
  21       20       21 2
  22       20       22 1
  23       22       23 ar
  24       23       24 ar
  25       24       25 ar
  26       25       26 ar
  27       26       27 ar
  28       27       22 ar
  29       27       28 1
  30       19       29 2
  31       29       30 1
  32       30       10 1
  33       30       31 1
  34       31       32 2
  35       31       33 1
  36       33        2 1
  37       33        8 2
  38        1       34 1
  39        1       35 1
  40        1       36 1
  41       13       37 1
  42       14       38 1
  43       15       39 1
  44       16       40 1
  45       17       41 1
  46       18       42 1
  47       23       43 1
  48       24       44 1
  49       25       45 1
  50       26       46 1
  51       28       47 1
  52       29       48 1

@<TRIPOS>MOLECULE

  48   52
SMALL
USER_CHARGES
@<TRIPOS>ATOM
   1 C1           7.4447     5.1195    -1.4693 C.3          1    LIG   0.0000
   2 C2           7.7061     3.8381    -0.6955 C.2          1    LIG   0.0000
   3 C3           8.9829     3.4259    -0.4453 C.2          1    LIG   0.0000
   4 C4          10.2006     4.1007    -0.8518 C.2          1    LIG   0.0000
   5 O5          11.0218     3.5166    -1.5915 O.co2        1    LIG   0.0000
   6 O6          10.4217     5.2291    -0.4750 O.co2        1    LIG  -1.0000
   7 S7           8.8941     1.9722     0.4381 S.3          1    LIG   0.0000
   8 C8           7.1937     1.8966     0.4716 C.2          1    LIG   0.0000
   9 N9           6.5122     0.8859     1.0760 N.2          1    LIG   0.0000
  10 C10          5.1970     0.9483     1.0346 C.2          1    LIG   0.0000
  11 C11          4.4882    -0.1096     1.6645 C.2          1    LIG   0.0000
  12 C12          5.1400    -1.2213     2.3298 C.ar         1    LIG   0.0000
  13 C13          6.1454    -1.9230     1.6727 C.ar         1    LIG   0.0000
  14 C14          6.7646    -2.9882     2.3180 C.ar         1    LIG   0.0000
  15 C15          6.3772    -3.3418     3.6069 C.ar         1    LIG   0.0000
  16 C16          5.3710    -2.6343     4.2567 C.ar         1    LIG   0.0000
  17 C17          4.7460    -1.5679     3.6181 C.ar         1    LIG   0.0000
  18 C18          3.1219    -0.0716     1.6383 C.2          1    LIG   0.0000
  19 C19          2.4486     1.0000     1.0000 C.2          1    LIG   0.0000
  20 C20          1.0000     1.0000     1.0000 C.2          1    LIG   0.0000
  21 O21          0.4000     0.0933     0.4921 O.2          1    LIG   0.0000
  22 C22          0.2749     2.0958     1.6138 C.ar         1    LIG   0.0000
  23 C23         -0.0733     3.2098     0.8568 C.ar         1    LIG   0.0000
  24 C24         -0.7687     4.2609     1.4450 C.ar         1    LIG   0.0000
  25 C25         -1.1178     4.1979     2.7903 C.ar         1    LIG   0.0000
  26 C26         -0.7703     3.0835     3.5476 C.ar         1    LIG   0.0000
  27 C27         -0.0734     2.0332     2.9601 C.ar         1    LIG   0.0000
  28 O28          0.2509     0.9650     3.7197 O.3          1    LIG   0.0000
  29 C29          3.1787     1.9949     0.4082 C.2          1    LIG   0.0000
  30 N30          4.5522     1.9890     0.4114 N.pl3        1    LIG   0.0000
  31 C31          5.2730     2.9928    -0.1923 C.2          1    LIG   0.0000
  32 O32          4.6992     3.9200    -0.7509 O.2          1    LIG   0.0000
  33 C33          6.6972     2.9780    -0.1808 C.2          1    LIG   0.0000
  34 H            6.4586     5.2612    -1.5559 H            1    LIG   0.0000
  35 H            7.8509     5.8922    -0.9816 H            1    LIG   0.0000
  36 H            7.8524     5.0482    -2.3796 H            1    LIG   0.0000
  37 H            6.4199    -1.6644     0.7465 H            1    LIG   0.0000
  38 H            7.4884    -3.5002     1.8555 H            1    LIG   0.0000
  39 H            6.8243    -4.1081     4.0683 H            1    LIG   0.0000
  40 H            5.0968    -2.8923     5.1831 H            1    LIG   0.0000
  41 H            4.0216    -1.0562     4.0801 H            1    LIG   0.0000
  42 H            2.5952    -0.8031     2.0714 H            1    LIG   0.0000
  43 H            0.1765     3.2549    -0.1104 H            1    LIG   0.0000
  44 H           -1.0179     5.0620     0.9009 H            1    LIG   0.0000
  45 H           -1.6184     4.9534     3.2129 H            1    LIG   0.0000
  46 H           -1.0217     3.0379     4.5145 H            1    LIG   0.0000
  47 H           -0.0092     0.9405     4.6850 H            1    LIG   0.0000
  48 H            2.6978     2.7486    -0.0398 H            1    LIG   0.0000
@<TRIPOS>BOND
   1        1        2 1
   2        2        3 2
   3        3        4 1
   4        4        5 ar
   5        4        6 ar
   6        3        7 1
   7        7        8 1
   8        8        9 1
   9        9       10 2
  10       10       11 1
  11       11       12 1
  12       12       13 ar
  13       13       14 ar
  14       14       15 ar
  15       15       16 ar
  16       16       17 ar
  17       17       12 ar
  18       11       18 2
  19       18       19 1
  20       19       20 1
  21       20       21 2
  22       20       22 1
  23       22       23 ar
  24       23       24 ar
  25       24       25 ar
  26       25       26 ar
  27       26       27 ar
  28       27       22 ar
  29       27       28 1
  30       19       29 2
  31       29       30 1
  32       30       10 1
  33       30       31 1
  34       31       32 2
  35       31       33 1
  36       33        2 1
  37       33        8 2
  38        1       34 1
  39        1       35 1
  40        1       36 1
  41       13       37 1
  42       14       38 1
  43       15       39 1
  44       16       40 1
  45       17       41 1
  46       18       42 1
  47       23       43 1
  48       24       44 1
  49       25       45 1
  50       26       46 1
  51       28       47 1
  52       29       48 1

