@<TRIPOS>MOLECULE
*****
 48 52 0 0 0
SMALL
USER_CHARGES

@<TRIPOS>ATOM
      1 C1          7.4447    5.1195   -1.4693 C.3     1  LIG1        0.0000
      2 C2          7.7061    3.8381   -0.6955 C.2     1  LIG1        0.0000
      3 C3          8.9829    3.4259   -0.4453 C.2     1  LIG1        0.0000
      4 C4         10.2006    4.1007   -0.8518 C.3     1  LIG1        0.0000
      5 O5         11.0218    3.5166   -1.5915 O.2     1  LIG1        0.0000
      6 O6         10.4217    5.2291   -0.4750 O.2     1  LIG1       -1.0000
      7 S7          8.8941    1.9722    0.4381 S.3     1  LIG1        0.0000
      8 C8          7.1937    1.8966    0.4716 C.2     1  LIG1        0.0000
      9 N9          6.5122    0.8859    1.0760 N.2     1  LIG1        0.0000
     10 C10         5.1970    0.9483    1.0346 C.2     1  LIG1        0.0000
     11 C11         4.4882   -0.1096    1.6645 C.2     1  LIG1        0.0000
     12 C12         5.1400   -1.2213    2.3298 C.3     1  LIG1        0.0000
     13 C13         6.1416   -0.9736    3.2628 C.3     1  LIG1        0.0000
     14 C14         6.7618   -2.0457    3.8955 C.3     1  LIG1        0.0000
     15 C15         6.3788   -3.3490    3.5933 C.3     1  LIG1        0.0000
     16 C16         5.3760   -3.5874    2.6591 C.3     1  LIG1        0.0000
     17 C17         4.7510   -2.5207    2.0212 C.3     1  LIG1        0.0000
     18 C18         3.1219   -0.0716    1.6383 C.2     1  LIG1        0.0000
     19 C19         2.4486    1.0000    1.0000 C.2     1  LIG1        0.0000
     20 C20         1.0000    1.0000    1.0000 C.2     1  LIG1        0.0000
     21 O21         0.4000    0.0933    0.4921 O.2     1  LIG1        0.0000
     22 C22         0.2749    2.0958    1.6138 C.3     1  LIG1        0.0000
     23 C23         0.9705    3.1471    2.2021 C.3     1  LIG1        0.0000
     24 C24         0.2755    4.1982    2.7907 C.3     1  LIG1        0.0000
     25 C25        -1.1157    4.1993    2.7902 C.3     1  LIG1        0.0000
     26 C26        -1.8120    3.1483    2.2013 C.3     1  LIG1        0.0000
     27 C27        -1.1172    2.0964    1.6141 C.3     1  LIG1        0.0000
     28 O28        -1.8193    1.0899    1.0509 O.2     1  LIG1        0.0000
     29 C29         3.1787    1.9949    0.4082 C.2     1  LIG1        0.0000
     30 N30         4.5522    1.9890    0.4114 N.am    1  LIG1        0.0000
     31 C31         5.2730    2.9928   -0.1923 C.2     1  LIG1        0.0000
     32 O32         4.6992    3.9200   -0.7509 O.2     1  LIG1        0.0000
     33 C33         6.6972    2.9780   -0.1808 C.2     1  LIG1        0.0000
     34 H           6.4586    5.2612   -1.5559 H       1  LIG1        0.0000
     35 H           7.8509    5.8922   -0.9816 H       1  LIG1        0.0000
     36 H           7.8524    5.0482   -2.3796 H       1  LIG1        0.0000
     37 H           6.4126   -0.0350    3.4763 H       1  LIG1        0.0000
     38 H           7.4833   -1.8800    4.5679 H       1  LIG1        0.0000
     39 H           6.8265   -4.1178    4.0499 H       1  LIG1        0.0000
     40 H           5.1044   -4.5259    2.4460 H       1  LIG1        0.0000
     41 H           4.0300   -2.6862    1.3482 H       1  LIG1        0.0000
     42 H           2.5952   -0.8031    2.0714 H       1  LIG1        0.0000
     43 H           1.9705    3.1471    2.2017 H       1  LIG1        0.0000
     44 H           0.7759    4.9532    3.2145 H       1  LIG1        0.0000
     45 H          -1.6153    4.9554    3.2129 H       1  LIG1        0.0000
     46 H          -2.8120    3.1494    2.2003 H       1  LIG1        0.0000
     47 H          -2.8191    1.1102    1.0623 H       1  LIG1        0.0000
     48 H           2.6978    2.7486   -0.0398 H       1  LIG1        0.0000
@<TRIPOS>UNITY_ATOM_ATTR
5 1
charge -1
@<TRIPOS>BOND
     1     1     2    1
     2     2     3    2
     3     3     4    1
     4     4     5    1
     5     4     6    2
     6     3     7    1
     7     7     8    1
     8     8     9    1
     9     9    10    2
    10    10    11    1
    11    11    12    1
    12    12    13   ar
    13    13    14   ar
    14    14    15   ar
    15    15    16   ar
    16    16    17   ar
    17    17    12   ar
    18    11    18    2
    19    18    19    1
    20    19    20    1
    21    20    21    2
    22    20    22    1
    23    22    23   ar
    24    23    24   ar
    25    24    25   ar
    26    25    26   ar
    27    26    27   ar
    28    27    22   ar
    29    27    28    1
    30    19    29    2
    31    29    30    1
    32    30    10    1
    33    30    31   am
    34    31    32    2
    35    31    33    1
    36    33     2    1
    37    33     8    2
    38     1    34    1
    39     1    35    1
    40     1    36    1
    41    13    37    1
    42    14    38    1
    43    15    39    1
    44    16    40    1
    45    17    41    1
    46    18    42    1
    47    23    43    1
    48    24    44    1
    49    25    45    1
    50    26    46    1
    51    28    47    1
    52    29    48    1
