@<TRIPOS>MOLECULE
*****
 48 52 0 0 0
SMALL
USER_CHARGES

@<TRIPOS>ATOM
      1 C1          7.4447    3.4693    5.1195 C.3     1  LIG1        0.0000
      2 C2          7.7061    2.6955    3.8381 C.2     1  LIG1        0.0000
      3 C3          8.9829    2.4453    3.4259 C.2     1  LIG1        0.0000
      4 C4         10.2006    2.8518    4.1007 C.3     1  LIG1        0.0000
      5 O5         11.3134    2.5537    3.6156 O.2     1  LIG1        0.0000
      6 O6         10.1394    3.4796    5.1333 O.2     1  LIG1       -1.0000
      7 S7          8.8941    1.5619    1.9722 S.3     1  LIG1        0.0000
      8 C8          7.1937    1.5284    1.8966 C.2     1  LIG1        0.0000
      9 N9          6.5122    0.9240    0.8859 N.2     1  LIG1        0.0000
     10 C10         5.1970    0.9654    0.9483 C.2     1  LIG1        0.0000
     11 C11         4.4882    0.3355   -0.1096 C.2     1  LIG1        0.0000
     12 C12         5.1400   -0.3298   -1.2213 C.3     1  LIG1        0.0000
     13 C13         6.1416   -1.2628   -0.9736 C.3     1  LIG1        0.0000
     14 C14         6.7618   -1.8955   -2.0457 C.3     1  LIG1        0.0000
     15 C15         6.3788   -1.5933   -3.3490 C.3     1  LIG1        0.0000
     16 C16         5.3760   -0.6591   -3.5874 C.3     1  LIG1        0.0000
     17 C17         4.7510   -0.0212   -2.5207 C.3     1  LIG1        0.0000
     18 C18         3.1219    0.3617   -0.0716 C.2     1  LIG1        0.0000
     19 C19         2.4486    1.0000    1.0000 C.2     1  LIG1        0.0000
     20 C20         1.0000    1.0000    1.0000 C.2     1  LIG1        0.0000
     21 O21         0.4000    0.0933    0.4921 O.2     1  LIG1        0.0000
     22 C22         0.2749    2.0958    1.6138 C.3     1  LIG1        0.0000
     23 C23        -0.0733    3.2098    0.8568 C.3     1  LIG1        0.0000
     24 C24        -0.7687    4.2609    1.4450 C.3     1  LIG1        0.0000
     25 C25        -1.1178    4.1979    2.7903 C.3     1  LIG1        0.0000
     26 C26        -0.7703    3.0835    3.5476 C.3     1  LIG1        0.0000
     27 C27        -0.0734    2.0332    2.9601 C.3     1  LIG1        0.0000
     28 O28         0.2509    0.9650    3.7197 O.2     1  LIG1        0.0000
     29 C29         3.1787    1.5918    1.9949 C.2     1  LIG1        0.0000
     30 N30         4.5522    1.5886    1.9890 N.am    1  LIG1        0.0000
     31 C31         5.2730    2.1923    2.9928 C.2     1  LIG1        0.0000
     32 O32         4.6992    2.7509    3.9200 O.2     1  LIG1        0.0000
     33 C33         6.6972    2.1808    2.9780 C.2     1  LIG1        0.0000
     34 H           6.4586    3.5559    5.2612 H       1  LIG1        0.0000
     35 H           7.8509    2.9816    5.8922 H       1  LIG1        0.0000
     36 H           7.8524    4.3796    5.0482 H       1  LIG1        0.0000
     37 H           6.4126   -1.4763   -0.0350 H       1  LIG1        0.0000
     38 H           7.4833   -2.5679   -1.8800 H       1  LIG1        0.0000
     39 H           6.8265   -2.0499   -4.1178 H       1  LIG1        0.0000
     40 H           5.1044   -0.4460   -4.5259 H       1  LIG1        0.0000
     41 H           4.0300    0.6518   -2.6862 H       1  LIG1        0.0000
     42 H           2.5952   -0.0714   -0.8031 H       1  LIG1        0.0000
     43 H           0.1765    3.2549   -0.1104 H       1  LIG1        0.0000
     44 H          -1.0179    5.0620    0.9009 H       1  LIG1        0.0000
     45 H          -1.6184    4.9534    3.2129 H       1  LIG1        0.0000
     46 H          -1.0217    3.0379    4.5145 H       1  LIG1        0.0000
     47 H          -0.0092    0.9405    4.6850 H       1  LIG1        0.0000
     48 H           2.6978    2.0398    2.7486 H       1  LIG1        0.0000
@<TRIPOS>UNITY_ATOM_ATTR
5 1
charge -1
@<TRIPOS>BOND
     1     1     2    1
     2     2     3    2
     3     3     4    1
     4     4     5    1
     5     4     6    2
     6     3     7    1
     7     7     8    1
     8     8     9    1
     9     9    10    2
    10    10    11    1
    11    11    12    1
    12    12    13   ar
    13    13    14   ar
    14    14    15   ar
    15    15    16   ar
    16    16    17   ar
    17    17    12   ar
    18    11    18    2
    19    18    19    1
    20    19    20    1
    21    20    21    2
    22    20    22    1
    23    22    23   ar
    24    23    24   ar
    25    24    25   ar
    26    25    26   ar
    27    26    27   ar
    28    27    22   ar
    29    27    28    1
    30    19    29    2
    31    29    30    1
    32    30    10    1
    33    30    31   am
    34    31    32    2
    35    31    33    1
    36    33     2    1
    37    33     8    2
    38     1    34    1
    39     1    35    1
    40     1    36    1
    41    13    37    1
    42    14    38    1
    43    15    39    1
    44    16    40    1
    45    17    41    1
    46    18    42    1
    47    23    43    1
    48    24    44    1
    49    25    45    1
    50    26    46    1
    51    28    47    1
    52    29    48    1
