@<TRIPOS>MOLECULE
*****
 48 52 0 0 0
SMALL
USER_CHARGES

@<TRIPOS>ATOM
      1 C1          7.4447   -3.8022    1.0787 C.3     1  LIG1        0.0000
      2 C2          7.7061   -2.3056    1.0493 C.2     1  LIG1        0.0000
      3 C3          8.9829   -1.8235    1.0387 C.2     1  LIG1        0.0000
      4 C4         10.2006   -2.6112    1.0534 C.3     1  LIG1        0.0000
      5 O5         11.3134   -2.0420    1.0377 O.2     1  LIG1        0.0000
      6 O6         10.1394   -3.8194    1.0808 O.2     1  LIG1       -1.0000
      7 S7          8.8941   -0.1229    1.0006 S.3     1  LIG1        0.0000
      8 C8          7.1937   -0.0407    1.0093 C.2     1  LIG1        0.0000
      9 N9          6.5122    1.1368    0.9913 N.2     1  LIG1        0.0000
     10 C10         5.1970    1.0621    0.9959 C.2     1  LIG1        0.0000
     11 C11         4.4882    2.2932    0.9793 C.2     1  LIG1        0.0000
     12 C12         5.1400    3.5886    0.9590 C.3     1  LIG1        0.0000
     13 C13         6.1416    3.8406    0.0271 C.3     1  LIG1        0.0000
     14 C14         6.7618    5.0855    0.0153 C.3     1  LIG1        0.0000
     15 C15         6.3788    6.0630    0.9286 C.3     1  LIG1        0.0000
     16 C16         5.3760    5.8024    1.8569 C.3     1  LIG1        0.0000
     17 C17         4.7510    4.5596    1.8760 C.3     1  LIG1        0.0000
     18 C18         3.1219    2.2472    0.9830 C.2     1  LIG1        0.0000
     19 C19         2.4486    1.0000    1.0000 C.2     1  LIG1        0.0000
     20 C20         1.0000    1.0000    1.0000 C.2     1  LIG1        0.0000
     21 O21         0.4000    0.0933    0.4921 O.2     1  LIG1        0.0000
     22 C22         0.2749    2.0958    1.6138 C.3     1  LIG1        0.0000
     23 C23        -0.0733    3.2098    0.8568 C.3     1  LIG1        0.0000
     24 C24        -0.7687    4.2609    1.4450 C.3     1  LIG1        0.0000
     25 C25        -1.1178    4.1979    2.7903 C.3     1  LIG1        0.0000
     26 C26        -0.7703    3.0835    3.5476 C.3     1  LIG1        0.0000
     27 C27        -0.0734    2.0332    2.9601 C.3     1  LIG1        0.0000
     28 O28         0.2509    0.9650    3.7197 O.2     1  LIG1        0.0000
     29 C29         3.1787   -0.1575    1.0151 C.2     1  LIG1        0.0000
     30 N30         4.5522   -0.1508    1.0153 N.am    1  LIG1        0.0000
     31 C31         5.2730   -1.3220    1.0361 C.2     1  LIG1        0.0000
     32 O32         4.6992   -2.4042    1.0564 O.2     1  LIG1        0.0000
     33 C33         6.6972   -1.3034    1.0336 C.2     1  LIG1        0.0000
     34 H           6.4586   -3.9683    1.0829 H       1  LIG1        0.0000
     35 H           7.8509   -4.2275    0.2700 H       1  LIG1        0.0000
     36 H           7.8524   -4.1956    1.9027 H       1  LIG1        0.0000
     37 H           6.4126    3.1345   -0.6270 H       1  LIG1        0.0000
     38 H           7.4833    5.2781   -0.6499 H       1  LIG1        0.0000
     39 H           6.8265    6.9571    0.9176 H       1  LIG1        0.0000
     40 H           5.1044    6.5086    2.5107 H       1  LIG1        0.0000
     41 H           4.0300    4.3664    2.5415 H       1  LIG1        0.0000
     42 H           2.5952    3.0972    0.9737 H       1  LIG1        0.0000
     43 H           0.1765    3.2549   -0.1104 H       1  LIG1        0.0000
     44 H          -1.0179    5.0620    0.9009 H       1  LIG1        0.0000
     45 H          -1.6184    4.9534    3.2129 H       1  LIG1        0.0000
     46 H          -1.0217    3.0379    4.5145 H       1  LIG1        0.0000
     47 H          -0.0092    0.9405    4.6850 H       1  LIG1        0.0000
     48 H           2.6978   -1.0342    1.0263 H       1  LIG1        0.0000
@<TRIPOS>UNITY_ATOM_ATTR
5 1
charge -1
@<TRIPOS>BOND
     1     1     2    1
     2     2     3    2
     3     3     4    1
     4     4     5    1
     5     4     6    2
     6     3     7    1
     7     7     8    1
     8     8     9    1
     9     9    10    2
    10    10    11    1
    11    11    12    1
    12    12    13   ar
    13    13    14   ar
    14    14    15   ar
    15    15    16   ar
    16    16    17   ar
    17    17    12   ar
    18    11    18    2
    19    18    19    1
    20    19    20    1
    21    20    21    2
    22    20    22    1
    23    22    23   ar
    24    23    24   ar
    25    24    25   ar
    26    25    26   ar
    27    26    27   ar
    28    27    22   ar
    29    27    28    1
    30    19    29    2
    31    29    30    1
    32    30    10    1
    33    30    31   am
    34    31    32    2
    35    31    33    1
    36    33     2    1
    37    33     8    2
    38     1    34    1
    39     1    35    1
    40     1    36    1
    41    13    37    1
    42    14    38    1
    43    15    39    1
    44    16    40    1
    45    17    41    1
    46    18    42    1
    47    23    43    1
    48    24    44    1
    49    25    45    1
    50    26    46    1
    51    28    47    1
    52    29    48    1
