@<TRIPOS>MOLECULE
*****
 48 52 0 0 0
SMALL
USER_CHARGES

@<TRIPOS>ATOM
      1 C1          7.4447   -1.4693   -3.1195 C.3     1  LIG1        0.0000
      2 C2          7.7061   -0.6955   -1.8381 C.2     1  LIG1        0.0000
      3 C3          8.9829   -0.4453   -1.4259 C.2     1  LIG1        0.0000
      4 C4         10.2006   -0.8518   -2.1007 C.3     1  LIG1        0.0000
      5 O5         11.0218   -1.5915   -1.5166 O.2     1  LIG1        0.0000
      6 O6         10.4217   -0.4750   -3.2291 O.2     1  LIG1       -1.0000
      7 S7          8.8941    0.4381    0.0278 S.3     1  LIG1        0.0000
      8 C8          7.1937    0.4716    0.1034 C.2     1  LIG1        0.0000
      9 N9          6.5122    1.0760    1.1141 N.2     1  LIG1        0.0000
     10 C10         5.1970    1.0346    1.0517 C.2     1  LIG1        0.0000
     11 C11         4.4882    1.6645    2.1096 C.2     1  LIG1        0.0000
     12 C12         5.1400    2.3298    3.2213 C.3     1  LIG1        0.0000
     13 C13         6.1416    3.2628    2.9736 C.3     1  LIG1        0.0000
     14 C14         6.7618    3.8955    4.0457 C.3     1  LIG1        0.0000
     15 C15         6.3788    3.5933    5.3490 C.3     1  LIG1        0.0000
     16 C16         5.3760    2.6591    5.5874 C.3     1  LIG1        0.0000
     17 C17         4.7510    2.0212    4.5207 C.3     1  LIG1        0.0000
     18 C18         3.1219    1.6383    2.0716 C.2     1  LIG1        0.0000
     19 C19         2.4486    1.0000    1.0000 C.2     1  LIG1        0.0000
     20 C20         1.0000    1.0000    1.0000 C.2     1  LIG1        0.0000
     21 O21         0.4000    0.0933    0.4921 O.2     1  LIG1        0.0000
     22 C22         0.2749    2.0958    1.6138 C.3     1  LIG1        0.0000
     23 C23        -0.0724    2.0327    2.9594 C.3     1  LIG1        0.0000
     24 C24        -0.7678    3.0834    3.5484 C.3     1  LIG1        0.0000
     25 C25        -1.1150    4.1985    2.7925 C.3     1  LIG1        0.0000
     26 C26        -0.7673    4.2623    1.4467 C.3     1  LIG1        0.0000
     27 C27        -0.0734    3.2111    0.8571 C.3     1  LIG1        0.0000
     28 O28         0.2500    3.3004   -0.4508 O.2     1  LIG1        0.0000
     29 C29         3.1787    0.4082    0.0051 C.2     1  LIG1        0.0000
     30 N30         4.5522    0.4114    0.0110 N.am    1  LIG1        0.0000
     31 C31         5.2730   -0.1923   -0.9928 C.2     1  LIG1        0.0000
     32 O32         4.6992   -0.7509   -1.9200 O.2     1  LIG1        0.0000
     33 C33         6.6972   -0.1808   -0.9780 C.2     1  LIG1        0.0000
     34 H           6.4586   -1.5559   -3.2612 H       1  LIG1        0.0000
     35 H           7.8509   -0.9816   -3.8922 H       1  LIG1        0.0000
     36 H           7.8524   -2.3796   -3.0482 H       1  LIG1        0.0000
     37 H           6.4126    3.4763    2.0350 H       1  LIG1        0.0000
     38 H           7.4833    4.5679    3.8800 H       1  LIG1        0.0000
     39 H           6.8265    4.0499    6.1178 H       1  LIG1        0.0000
     40 H           5.1044    2.4460    6.5259 H       1  LIG1        0.0000
     41 H           4.0300    1.3482    4.6862 H       1  LIG1        0.0000
     42 H           2.5952    2.0714    2.8031 H       1  LIG1        0.0000
     43 H           0.1779    1.2318    3.5033 H       1  LIG1        0.0000
     44 H          -1.0182    3.0372    4.5154 H       1  LIG1        0.0000
     45 H          -1.6144    4.9541    3.2163 H       1  LIG1        0.0000
     46 H          -1.0163    5.0641    0.9034 H       1  LIG1        0.0000
     47 H          -0.0100    4.1108   -0.9759 H       1  LIG1        0.0000
     48 H           2.6978   -0.0398   -0.7486 H       1  LIG1        0.0000
@<TRIPOS>UNITY_ATOM_ATTR
5 1
charge -1
@<TRIPOS>BOND
     1     1     2    1
     2     2     3    2
     3     3     4    1
     4     4     5    1
     5     4     6    2
     6     3     7    1
     7     7     8    1
     8     8     9    1
     9     9    10    2
    10    10    11    1
    11    11    12    1
    12    12    13   ar
    13    13    14   ar
    14    14    15   ar
    15    15    16   ar
    16    16    17   ar
    17    17    12   ar
    18    11    18    2
    19    18    19    1
    20    19    20    1
    21    20    21    2
    22    20    22    1
    23    22    23   ar
    24    23    24   ar
    25    24    25   ar
    26    25    26   ar
    27    26    27   ar
    28    27    22   ar
    29    27    28    1
    30    19    29    2
    31    29    30    1
    32    30    10    1
    33    30    31   am
    34    31    32    2
    35    31    33    1
    36    33     2    1
    37    33     8    2
    38     1    34    1
    39     1    35    1
    40     1    36    1
    41    13    37    1
    42    14    38    1
    43    15    39    1
    44    16    40    1
    45    17    41    1
    46    18    42    1
    47    23    43    1
    48    24    44    1
    49    25    45    1
    50    26    46    1
    51    28    47    1
    52    29    48    1
