@<TRIPOS>MOLECULE
*****
 48 52 0 0 0
SMALL
USER_CHARGES

@<TRIPOS>ATOM
      1 C1          7.4447    5.8022    0.9213 C.3     1  LIG1        0.0000
      2 C2          7.7061    4.3056    0.9507 C.2     1  LIG1        0.0000
      3 C3          8.9829    3.8235    0.9613 C.2     1  LIG1        0.0000
      4 C4         10.2006    4.6112    0.9466 C.3     1  LIG1        0.0000
      5 O5         11.3134    4.0420    0.9623 O.2     1  LIG1        0.0000
      6 O6         10.1394    5.8194    0.9192 O.2     1  LIG1       -1.0000
      7 S7          8.8941    2.1229    0.9994 S.3     1  LIG1        0.0000
      8 C8          7.1937    2.0407    0.9907 C.2     1  LIG1        0.0000
      9 N9          6.5122    0.8632    1.0087 N.2     1  LIG1        0.0000
     10 C10         5.1970    0.9379    1.0041 C.2     1  LIG1        0.0000
     11 C11         4.4882   -0.2932    1.0207 C.2     1  LIG1        0.0000
     12 C12         5.1400   -1.5886    1.0410 C.3     1  LIG1        0.0000
     13 C13         6.1416   -1.8406    1.9729 C.3     1  LIG1        0.0000
     14 C14         6.7618   -3.0855    1.9847 C.3     1  LIG1        0.0000
     15 C15         6.3788   -4.0630    1.0714 C.3     1  LIG1        0.0000
     16 C16         5.3760   -3.8024    0.1431 C.3     1  LIG1        0.0000
     17 C17         4.7510   -2.5596    0.1240 C.3     1  LIG1        0.0000
     18 C18         3.1219   -0.2472    1.0170 C.2     1  LIG1        0.0000
     19 C19         2.4486    1.0000    1.0000 C.2     1  LIG1        0.0000
     20 C20         1.0000    1.0000    1.0000 C.2     1  LIG1        0.0000
     21 O21         0.4000    0.0933    0.4921 O.2     1  LIG1        0.0000
     22 C22         0.2749    2.0958    1.6138 C.3     1  LIG1        0.0000
     23 C23        -0.0724    2.0327    2.9594 C.3     1  LIG1        0.0000
     24 C24        -0.7678    3.0834    3.5484 C.3     1  LIG1        0.0000
     25 C25        -1.1150    4.1985    2.7925 C.3     1  LIG1        0.0000
     26 C26        -0.7673    4.2623    1.4467 C.3     1  LIG1        0.0000
     27 C27        -0.0734    3.2111    0.8571 C.3     1  LIG1        0.0000
     28 O28         0.2500    3.3004   -0.4508 O.2     1  LIG1        0.0000
     29 C29         3.1787    2.1575    0.9849 C.2     1  LIG1        0.0000
     30 N30         4.5522    2.1508    0.9847 N.am    1  LIG1        0.0000
     31 C31         5.2730    3.3220    0.9639 C.2     1  LIG1        0.0000
     32 O32         4.6992    4.4042    0.9436 O.2     1  LIG1        0.0000
     33 C33         6.6972    3.3034    0.9664 C.2     1  LIG1        0.0000
     34 H           6.4586    5.9683    0.9171 H       1  LIG1        0.0000
     35 H           7.8509    6.2275    1.7300 H       1  LIG1        0.0000
     36 H           7.8524    6.1956    0.0973 H       1  LIG1        0.0000
     37 H           6.4126   -1.1345    2.6270 H       1  LIG1        0.0000
     38 H           7.4833   -3.2781    2.6499 H       1  LIG1        0.0000
     39 H           6.8265   -4.9571    1.0824 H       1  LIG1        0.0000
     40 H           5.1044   -4.5086   -0.5107 H       1  LIG1        0.0000
     41 H           4.0300   -2.3664   -0.5415 H       1  LIG1        0.0000
     42 H           2.5952   -1.0972    1.0263 H       1  LIG1        0.0000
     43 H           0.1779    1.2318    3.5033 H       1  LIG1        0.0000
     44 H          -1.0182    3.0372    4.5154 H       1  LIG1        0.0000
     45 H          -1.6144    4.9541    3.2163 H       1  LIG1        0.0000
     46 H          -1.0163    5.0641    0.9034 H       1  LIG1        0.0000
     47 H          -0.0100    4.1108   -0.9759 H       1  LIG1        0.0000
     48 H           2.6978    3.0342    0.9737 H       1  LIG1        0.0000
@<TRIPOS>UNITY_ATOM_ATTR
5 1
charge -1
@<TRIPOS>BOND
     1     1     2    1
     2     2     3    2
     3     3     4    1
     4     4     5    1
     5     4     6    2
     6     3     7    1
     7     7     8    1
     8     8     9    1
     9     9    10    2
    10    10    11    1
    11    11    12    1
    12    12    13   ar
    13    13    14   ar
    14    14    15   ar
    15    15    16   ar
    16    16    17   ar
    17    17    12   ar
    18    11    18    2
    19    18    19    1
    20    19    20    1
    21    20    21    2
    22    20    22    1
    23    22    23   ar
    24    23    24   ar
    25    24    25   ar
    26    25    26   ar
    27    26    27   ar
    28    27    22   ar
    29    27    28    1
    30    19    29    2
    31    29    30    1
    32    30    10    1
    33    30    31   am
    34    31    32    2
    35    31    33    1
    36    33     2    1
    37    33     8    2
    38     1    34    1
    39     1    35    1
    40     1    36    1
    41    13    37    1
    42    14    38    1
    43    15    39    1
    44    16    40    1
    45    17    41    1
    46    18    42    1
    47    23    43    1
    48    24    44    1
    49    25    45    1
    50    26    46    1
    51    28    47    1
    52    29    48    1
