@<TRIPOS>MOLECULE

  33   35
SMALL
USER_CHARGES
@<TRIPOS>ATOM
   1 C1          -0.2836     0.6643     1.7417 C.3          1    LIG   0.0000
   2 C2           1.0000     1.0000     1.0000 C.3          1    LIG   0.0000
   3 C3           1.8761     1.8761     1.8761 C.2          1    LIG   0.0000
   4 C4           1.4043     2.2170     3.1050 C.2          1    LIG   0.0000
   5 S5           2.6386     3.1839     3.7743 S.3          1    LIG   0.0000
   6 C6           3.6985     3.1143     2.4421 C.2          1    LIG   0.0000
   7 S7           5.2462     3.9002     2.3703 S.3          1    LIG   0.0000
   8 C8           5.8239     3.4573     0.7892 C.ar         1    LIG   0.0000
   9 N9           5.0872     2.6826    -0.0225 N.ar         1    LIG   0.0000
  10 C10          5.5155     2.3278    -1.2428 C.ar         1    LIG   0.0000
  11 N11          6.7042     2.7473    -1.6973 N.ar         1    LIG   0.0000
  12 C12          7.4762     3.5295    -0.9256 C.ar         1    LIG   0.0000
  13 C13          7.0712     3.9006     0.3541 C.ar         1    LIG   0.0000
  14 C14          7.9722     4.7490     1.2433 C.3          1    LIG   0.0000
  15 C15          8.9959     5.5238     0.4319 C.3          1    LIG   0.0000
  16 C16          9.7412     4.4978    -0.4056 C.3          1    LIG   0.0000
  17 C17          8.7946     4.0234    -1.4977 C.3          1    LIG   0.0000
  18 N18          3.1098     2.3715     1.5323 N.2          1    LIG   0.0000
  19 H           -0.8609     0.0869     1.1644 H            1    LIG   0.0000
  20 H           -0.0627     0.1763     2.5862 H            1    LIG   0.0000
  21 H           -0.7715     1.5087     1.9626 H            1    LIG   0.0000
  22 H            1.4880     0.1556     0.7791 H            1    LIG   0.0000
  23 H            0.7791     1.4880     0.1556 H            1    LIG   0.0000
  24 H            0.5324     1.9593     3.5213 H            1    LIG   0.0000
  25 H            4.9426     1.7448    -1.8189 H            1    LIG   0.0000
  26 H            8.4527     4.1495     1.8833 H            1    LIG   0.0000
  27 H            7.4063     5.3965     1.7538 H            1    LIG   0.0000
  28 H            9.6303     6.0011     1.0399 H            1    LIG   0.0000
  29 H            8.5384     6.1874    -0.1599 H            1    LIG   0.0000
  30 H           10.5524     4.9155    -0.8148 H            1    LIG   0.0000
  31 H           10.0167     3.7253     0.1665 H            1    LIG   0.0000
  32 H            8.6124     4.7837    -2.1211 H            1    LIG   0.0000
  33 H            9.2292     3.2765    -2.0009 H            1    LIG   0.0000
@<TRIPOS>BOND
   1        1        2 1
   2        2        3 1
   3        3        4 2
   4        4        5 1
   5        5        6 1
   6        6        7 1
   7        7        8 1
   8        8        9 ar
   9        9       10 ar
  10       10       11 ar
  11       11       12 ar
  12       12       13 ar
  13       13        8 ar
  14       13       14 1
  15       14       15 1
  16       15       16 1
  17       16       17 1
  18       17       12 1
  19        6       18 2
  20       18        3 1
  21        1       19 1
  22        1       20 1
  23        1       21 1
  24        2       22 1
  25        2       23 1
  26        4       24 1
  27       10       25 1
  28       14       26 1
  29       14       27 1
  30       15       28 1
  31       15       29 1
  32       16       30 1
  33       16       31 1
  34       17       32 1
  35       17       33 1

@<TRIPOS>MOLECULE

  33   35
SMALL
USER_CHARGES
@<TRIPOS>ATOM
   1 C1          -0.2836     0.6643     1.7417 C.3          1    LIG   0.0000
   2 C2           1.0000     1.0000     1.0000 C.3          1    LIG   0.0000
   3 C3           1.8761     1.8761     1.8761 C.2          1    LIG   0.0000
   4 C4           1.4043     2.2170     3.1050 C.2          1    LIG   0.0000
   5 S5           2.6386     3.1839     3.7743 S.3          1    LIG   0.0000
   6 C6           3.6985     3.1143     2.4421 C.2          1    LIG   0.0000
   7 S7           5.2462     3.9002     2.3703 S.3          1    LIG   0.0000
   8 C8           5.8239     3.4573     0.7892 C.ar         1    LIG   0.0000
   9 N9           5.5557     4.2205    -0.2821 N.ar         1    LIG   0.0000
  10 C10          5.9889     3.8952    -1.5089 C.ar         1    LIG   0.0000
  11 N11          6.7182     2.7881    -1.7036 N.ar         1    LIG   0.0000
  12 C12          7.0187     1.9944    -0.6628 C.ar         1    LIG   0.0000
  13 C13          6.5684     2.2916     0.6211 C.ar         1    LIG   0.0000
  14 C14          6.8724     1.3624     1.7900 C.3          1    LIG   0.0000
  15 C15          8.0746     0.4780     1.5085 C.3          1    LIG   0.0000
  16 C16          7.7769    -0.2439     0.2047 C.3          1    LIG   0.0000
  17 C17          7.8888     0.7752    -0.9189 C.3          1    LIG   0.0000
  18 N18          3.1098     2.3715     1.5323 N.2          1    LIG   0.0000
  19 H           -0.8609     0.0869     1.1644 H            1    LIG   0.0000
  20 H           -0.0627     0.1763     2.5862 H            1    LIG   0.0000
  21 H           -0.7715     1.5087     1.9626 H            1    LIG   0.0000
  22 H            1.4880     0.1556     0.7791 H            1    LIG   0.0000
  23 H            0.7791     1.4880     0.1556 H            1    LIG   0.0000
  24 H            0.5324     1.9593     3.5213 H            1    LIG   0.0000
  25 H            5.7657     4.4843    -2.2855 H            1    LIG   0.0000
  26 H            6.0756     0.7819     1.9579 H            1    LIG   0.0000
  27 H            7.0597     1.9146     2.6024 H            1    LIG   0.0000
  28 H            8.1997    -0.1822     2.2491 H            1    LIG   0.0000
  29 H            8.8999     1.0348     1.4154 H            1    LIG   0.0000
  30 H            8.4379    -0.9810     0.0641 H            1    LIG   0.0000
  31 H            6.8527    -0.6251     0.2290 H            1    LIG   0.0000
  32 H            8.8418     1.0681    -0.9966 H            1    LIG   0.0000
  33 H            7.6011     0.3461    -1.7751 H            1    LIG   0.0000
@<TRIPOS>BOND
   1        1        2 1
   2        2        3 1
   3        3        4 2
   4        4        5 1
   5        5        6 1
   6        6        7 1
   7        7        8 1
   8        8        9 ar
   9        9       10 ar
  10       10       11 ar
  11       11       12 ar
  12       12       13 ar
  13       13        8 ar
  14       13       14 1
  15       14       15 1
  16       15       16 1
  17       16       17 1
  18       17       12 1
  19        6       18 2
  20       18        3 1
  21        1       19 1
  22        1       20 1
  23        1       21 1
  24        2       22 1
  25        2       23 1
  26        4       24 1
  27       10       25 1
  28       14       26 1
  29       14       27 1
  30       15       28 1
  31       15       29 1
  32       16       30 1
  33       16       31 1
  34       17       32 1
  35       17       33 1

@<TRIPOS>MOLECULE

  33   35
SMALL
USER_CHARGES
@<TRIPOS>ATOM
   1 C1          -0.2836     0.6643     1.7417 C.3          1    LIG   0.0000
   2 C2           1.0000     1.0000     1.0000 C.3          1    LIG   0.0000
   3 C3           1.8761     1.8761     1.8761 C.2          1    LIG   0.0000
   4 C4           1.4043     2.2170     3.1050 C.2          1    LIG   0.0000
   5 S5           2.6386     3.1839     3.7743 S.3          1    LIG   0.0000
   6 C6           3.6985     3.1143     2.4421 C.2          1    LIG   0.0000
   7 S7           5.2462     3.9002     2.3703 S.3          1    LIG   0.0000
   8 C8           5.8239     3.4573     0.7892 C.ar         1    LIG   0.0000
   9 N9           6.5501     2.3431     0.6071 N.ar         1    LIG   0.0000
  10 C10          7.0070     1.9861    -0.6021 C.ar         1    LIG   0.0000
  11 N11          6.7428     2.7367    -1.6802 N.ar         1    LIG   0.0000
  12 C12          6.0150     3.8579    -1.5515 C.ar         1    LIG   0.0000
  13 C13          5.5417     4.2687    -0.3078 C.ar         1    LIG   0.0000
  14 C14          4.7568     5.5665    -0.1606 C.3          1    LIG   0.0000
  15 C15          4.1386     6.0033    -1.4773 C.3          1    LIG   0.0000
  16 C16          5.2788     6.0794    -2.4792 C.3          1    LIG   0.0000
  17 C17          5.6969     4.6540    -2.8062 C.3          1    LIG   0.0000
  18 N18          3.1098     2.3715     1.5323 N.2          1    LIG   0.0000
  19 H           -0.8609     0.0869     1.1644 H            1    LIG   0.0000
  20 H           -0.0627     0.1763     2.5862 H            1    LIG   0.0000
  21 H           -0.7715     1.5087     1.9626 H            1    LIG   0.0000
  22 H            1.4880     0.1556     0.7791 H            1    LIG   0.0000
  23 H            0.7791     1.4880     0.1556 H            1    LIG   0.0000
  24 H            0.5324     1.9593     3.5213 H            1    LIG   0.0000
  25 H            7.5498     1.1520    -0.7002 H            1    LIG   0.0000
  26 H            5.3748     6.2841     0.1608 H            1    LIG   0.0000
  27 H            4.0276     5.4297     0.5099 H            1    LIG   0.0000
  28 H            3.7060     6.8993    -1.3764 H            1    LIG   0.0000
  29 H            3.4572     5.3361    -1.7781 H            1    LIG   0.0000
  30 H            4.9727     6.5444    -3.3099 H            1    LIG   0.0000
  31 H            6.0491     6.5785    -2.0824 H            1    LIG   0.0000
  32 H            4.9512     4.2021    -3.2960 H            1    LIG   0.0000
  33 H            6.5099     4.6804    -3.3878 H            1    LIG   0.0000
@<TRIPOS>BOND
   1        1        2 1
   2        2        3 1
   3        3        4 2
   4        4        5 1
   5        5        6 1
   6        6        7 1
   7        7        8 1
   8        8        9 ar
   9        9       10 ar
  10       10       11 ar
  11       11       12 ar
  12       12       13 ar
  13       13        8 ar
  14       13       14 1
  15       14       15 1
  16       15       16 1
  17       16       17 1
  18       17       12 1
  19        6       18 2
  20       18        3 1
  21        1       19 1
  22        1       20 1
  23        1       21 1
  24        2       22 1
  25        2       23 1
  26        4       24 1
  27       10       25 1
  28       14       26 1
  29       14       27 1
  30       15       28 1
  31       15       29 1
  32       16       30 1
  33       16       31 1
  34       17       32 1
  35       17       33 1

@<TRIPOS>MOLECULE

  33   35
SMALL
USER_CHARGES
@<TRIPOS>ATOM
   1 C1          -0.2836     0.6643     1.7417 C.3          1    LIG   0.0000
   2 C2           1.0000     1.0000     1.0000 C.3          1    LIG   0.0000
   3 C3           1.8761     1.8761     1.8761 C.2          1    LIG   0.0000
   4 C4           1.4043     2.2170     3.1050 C.2          1    LIG   0.0000
   5 S5           2.6386     3.1839     3.7743 S.3          1    LIG   0.0000
   6 C6           3.6985     3.1143     2.4421 C.2          1    LIG   0.0000
   7 S7           5.2462     3.9002     2.3703 S.3          1    LIG   0.0000
   8 C8           5.3450     4.6865     3.9199 C.ar         1    LIG   0.0000
   9 N9           4.3476     4.5808     4.8122 N.ar         1    LIG   0.0000
  10 C10          4.4031     5.1813     6.0100 C.ar         1    LIG   0.0000
  11 N11          5.4729     5.9085     6.3597 N.ar         1    LIG   0.0000
  12 C12          6.4999     6.0397     5.5046 C.ar         1    LIG   0.0000
  13 C13          6.4669     5.4462     4.2451 C.ar         1    LIG   0.0000
  14 C14          7.6144     5.6379     3.2610 C.3          1    LIG   0.0000
  15 C15          8.8999     6.0357     3.9653 C.3          1    LIG   0.0000
  16 C16          8.5723     7.2738     4.7834 C.3          1    LIG   0.0000
  17 C17          7.7144     6.8319     5.9592 C.3          1    LIG   0.0000
  18 N18          3.1098     2.3715     1.5323 N.2          1    LIG   0.0000
  19 H           -0.8609     0.0869     1.1644 H            1    LIG   0.0000
  20 H           -0.0627     0.1763     2.5862 H            1    LIG   0.0000
  21 H           -0.7715     1.5087     1.9626 H            1    LIG   0.0000
  22 H            1.4880     0.1556     0.7791 H            1    LIG   0.0000
  23 H            0.7791     1.4880     0.1556 H            1    LIG   0.0000
  24 H            0.5324     1.9593     3.5213 H            1    LIG   0.0000
  25 H            3.6391     5.0855     6.6481 H            1    LIG   0.0000
  26 H            7.3664     6.3555     2.6102 H            1    LIG   0.0000
  27 H            7.7664     4.7803     2.7697 H            1    LIG   0.0000
  28 H            9.6125     6.2422     3.2948 H            1    LIG   0.0000
  29 H            9.2096     5.2970     4.5639 H            1    LIG   0.0000
  30 H            9.4156     7.6961     5.1159 H            1    LIG   0.0000
  31 H            8.0694     7.9308     4.2218 H            1    LIG   0.0000
  32 H            8.2662     6.2592     6.5654 H            1    LIG   0.0000
  33 H            7.4048     7.6423     6.4566 H            1    LIG   0.0000
@<TRIPOS>BOND
   1        1        2 1
   2        2        3 1
   3        3        4 2
   4        4        5 1
   5        5        6 1
   6        6        7 1
   7        7        8 1
   8        8        9 ar
   9        9       10 ar
  10       10       11 ar
  11       11       12 ar
  12       12       13 ar
  13       13        8 ar
  14       13       14 1
  15       14       15 1
  16       15       16 1
  17       16       17 1
  18       17       12 1
  19        6       18 2
  20       18        3 1
  21        1       19 1
  22        1       20 1
  23        1       21 1
  24        2       22 1
  25        2       23 1
  26        4       24 1
  27       10       25 1
  28       14       26 1
  29       14       27 1
  30       15       28 1
  31       15       29 1
  32       16       30 1
  33       16       31 1
  34       17       32 1
  35       17       33 1

@<TRIPOS>MOLECULE

  33   35
SMALL
USER_CHARGES
@<TRIPOS>ATOM
   1 C1          -0.2836     0.6643     1.7417 C.3          1    LIG   0.0000
   2 C2           1.0000     1.0000     1.0000 C.3          1    LIG   0.0000
   3 C3           1.8761     1.8761     1.8761 C.2          1    LIG   0.0000
   4 C4           1.4043     2.2170     3.1050 C.2          1    LIG   0.0000
   5 S5           2.6386     3.1839     3.7743 S.3          1    LIG   0.0000
   6 C6           3.6985     3.1143     2.4421 C.2          1    LIG   0.0000
   7 S7           5.2462     3.9002     2.3703 S.3          1    LIG   0.0000
   8 C8           5.3450     4.6865     3.9199 C.ar         1    LIG   0.0000
   9 N9           5.8814     4.0596     4.9788 N.ar         1    LIG   0.0000
  10 C10          5.9640     4.6468     6.1817 C.ar         1    LIG   0.0000
  11 N11          5.5144     5.8959     6.3634 N.ar         1    LIG   0.0000
  12 C12          4.9746     6.5680     5.3338 C.ar         1    LIG   0.0000
  13 C13          4.8551     5.9816     4.0763 C.ar         1    LIG   0.0000
  14 C14          4.1987     6.7318     2.9237 C.3          1    LIG   0.0000
  15 C15          4.2126     8.2337     3.1488 C.3          1    LIG   0.0000
  16 C16          3.5520     8.4690     4.4970 C.3          1    LIG   0.0000
  17 C17          4.5219     7.9992     5.5704 C.3          1    LIG   0.0000
  18 N18          3.1098     2.3715     1.5323 N.2          1    LIG   0.0000
  19 H           -0.8609     0.0869     1.1644 H            1    LIG   0.0000
  20 H           -0.0627     0.1763     2.5862 H            1    LIG   0.0000
  21 H           -0.7715     1.5087     1.9626 H            1    LIG   0.0000
  22 H            1.4880     0.1556     0.7791 H            1    LIG   0.0000
  23 H            0.7791     1.4880     0.1556 H            1    LIG   0.0000
  24 H            0.5324     1.9593     3.5213 H            1    LIG   0.0000
  25 H            6.3649     4.1478     6.9500 H            1    LIG   0.0000
  26 H            3.2505     6.4262     2.8367 H            1    LIG   0.0000
  27 H            4.6939     6.5262     2.0797 H            1    LIG   0.0000
  28 H            3.6995     8.6969     2.4262 H            1    LIG   0.0000
  29 H            5.1531     8.5735     3.1600 H            1    LIG   0.0000
  30 H            3.3565     9.4425     4.6161 H            1    LIG   0.0000
  31 H            2.7002     7.9484     4.5552 H            1    LIG   0.0000
  32 H            5.3234     8.5971     5.5668 H            1    LIG   0.0000
  33 H            4.0701     8.0528     6.4609 H            1    LIG   0.0000
@<TRIPOS>BOND
   1        1        2 1
   2        2        3 1
   3        3        4 2
   4        4        5 1
   5        5        6 1
   6        6        7 1
   7        7        8 1
   8        8        9 ar
   9        9       10 ar
  10       10       11 ar
  11       11       12 ar
  12       12       13 ar
  13       13        8 ar
  14       13       14 1
  15       14       15 1
  16       15       16 1
  17       16       17 1
  18       17       12 1
  19        6       18 2
  20       18        3 1
  21        1       19 1
  22        1       20 1
  23        1       21 1
  24        2       22 1
  25        2       23 1
  26        4       24 1
  27       10       25 1
  28       14       26 1
  29       14       27 1
  30       15       28 1
  31       15       29 1
  32       16       30 1
  33       16       31 1
  34       17       32 1
  35       17       33 1

@<TRIPOS>MOLECULE

  33   35
SMALL
USER_CHARGES
@<TRIPOS>ATOM
   1 C1          -0.2836     0.6643     1.7417 C.3          1    LIG   0.0000
   2 C2           1.0000     1.0000     1.0000 C.3          1    LIG   0.0000
   3 C3           1.8761     1.8761     1.8761 C.2          1    LIG   0.0000
   4 C4           1.4043     2.2170     3.1050 C.2          1    LIG   0.0000
   5 S5           2.6386     3.1839     3.7743 S.3          1    LIG   0.0000
   6 C6           3.6985     3.1143     2.4421 C.2          1    LIG   0.0000
   7 S7           5.2462     3.9002     2.3703 S.3          1    LIG   0.0000
   8 C8           5.3450     4.6865     3.9199 C.ar         1    LIG   0.0000
   9 N9           4.8869     5.9369     4.0896 N.ar         1    LIG   0.0000
  10 C10          4.9565     6.5613     5.2744 C.ar         1    LIG   0.0000
  11 N11          5.4858     5.9452     6.3402 N.ar         1    LIG   0.0000
  12 C12          5.9524     4.6914     6.2237 C.ar         1    LIG   0.0000
  13 C13          5.9140     4.0208     5.0037 C.ar         1    LIG   0.0000
  14 C14          6.4882     2.6159     4.8663 C.3          1    LIG   0.0000
  15 C15          6.5740     1.9089     6.2076 C.3          1    LIG   0.0000
  16 C16          7.3788     2.8203     7.1193 C.3          1    LIG   0.0000
  17 C17          6.4996     4.0116     7.4677 C.3          1    LIG   0.0000
  18 N18          3.1098     2.3715     1.5323 N.2          1    LIG   0.0000
  19 H           -0.8609     0.0869     1.1644 H            1    LIG   0.0000
  20 H           -0.0627     0.1763     2.5862 H            1    LIG   0.0000
  21 H           -0.7715     1.5087     1.9626 H            1    LIG   0.0000
  22 H            1.4880     0.1556     0.7791 H            1    LIG   0.0000
  23 H            0.7791     1.4880     0.1556 H            1    LIG   0.0000
  24 H            0.5324     1.9593     3.5213 H            1    LIG   0.0000
  25 H            4.6103     7.4952     5.3634 H            1    LIG   0.0000
  26 H            7.4058     2.6781     4.4737 H            1    LIG   0.0000
  27 H            5.9002     2.0840     4.2569 H            1    LIG   0.0000
  28 H            7.0346     1.0271     6.1054 H            1    LIG   0.0000
  29 H            5.6582     1.7651     6.5826 H            1    LIG   0.0000
  30 H            7.6350     2.3300     7.9524 H            1    LIG   0.0000
  31 H            8.2043     3.1315     6.6485 H            1    LIG   0.0000
  32 H            5.7335     3.6959     8.0276 H            1    LIG   0.0000
  33 H            7.0412     4.6731     7.9865 H            1    LIG   0.0000
@<TRIPOS>BOND
   1        1        2 1
   2        2        3 1
   3        3        4 2
   4        4        5 1
   5        5        6 1
   6        6        7 1
   7        7        8 1
   8        8        9 ar
   9        9       10 ar
  10       10       11 ar
  11       11       12 ar
  12       12       13 ar
  13       13        8 ar
  14       13       14 1
  15       14       15 1
  16       15       16 1
  17       16       17 1
  18       17       12 1
  19        6       18 2
  20       18        3 1
  21        1       19 1
  22        1       20 1
  23        1       21 1
  24        2       22 1
  25        2       23 1
  26        4       24 1
  27       10       25 1
  28       14       26 1
  29       14       27 1
  30       15       28 1
  31       15       29 1
  32       16       30 1
  33       16       31 1
  34       17       32 1
  35       17       33 1

@<TRIPOS>MOLECULE

  33   35
SMALL
USER_CHARGES
@<TRIPOS>ATOM
   1 C1          -0.2836     0.6643     1.7417 C.3          1    LIG   0.0000
   2 C2           1.0000     1.0000     1.0000 C.3          1    LIG   0.0000
   3 C3           1.8761     1.8761     1.8761 C.2          1    LIG   0.0000
   4 C4           1.4043     2.2170     3.1050 C.2          1    LIG   0.0000
   5 S5           2.6386     3.1839     3.7743 S.3          1    LIG   0.0000
   6 C6           3.6985     3.1143     2.4421 C.2          1    LIG   0.0000
   7 S7           5.2462     3.9002     2.3703 S.3          1    LIG   0.0000
   8 C8           6.3179     2.6873     3.0104 C.ar         1    LIG   0.0000
   9 N9           5.8501     1.4934     3.4076 N.ar         1    LIG   0.0000
  10 C10          6.6587     0.5468     3.9063 C.ar         1    LIG   0.0000
  11 N11          7.9761     0.7644     4.0178 N.ar         1    LIG   0.0000
  12 C12          8.4943     1.9405     3.6285 C.ar         1    LIG   0.0000
  13 C13          7.6810     2.9527     3.1248 C.ar         1    LIG   0.0000
  14 C14          8.2680     4.3021     2.7290 C.3          1    LIG   0.0000
  15 C15          9.7576     4.2078     2.4483 C.3          1    LIG   0.0000
  16 C16         10.3877     3.5985     3.6898 C.3          1    LIG   0.0000
  17 C17          9.9991     2.1284     3.7261 C.3          1    LIG   0.0000
  18 N18          3.1098     2.3715     1.5323 N.2          1    LIG   0.0000
  19 H           -0.8609     0.0869     1.1644 H            1    LIG   0.0000
  20 H           -0.0627     0.1763     2.5862 H            1    LIG   0.0000
  21 H           -0.7715     1.5087     1.9626 H            1    LIG   0.0000
  22 H            1.4880     0.1556     0.7791 H            1    LIG   0.0000
  23 H            0.7791     1.4880     0.1556 H            1    LIG   0.0000
  24 H            0.5324     1.9593     3.5213 H            1    LIG   0.0000
  25 H            6.2749    -0.3295     4.1975 H            1    LIG   0.0000
  26 H            8.1195     4.9512     3.4751 H            1    LIG   0.0000
  27 H            7.8034     4.6284     1.9058 H            1    LIG   0.0000
  28 H           10.1363     5.1177     2.2788 H            1    LIG   0.0000
  29 H            9.9240     3.6241     1.6535 H            1    LIG   0.0000
  30 H           11.3828     3.6875     3.6463 H            1    LIG   0.0000
  31 H           10.0471     4.0619     4.5079 H            1    LIG   0.0000
  32 H           10.4345     1.6593     2.9577 H            1    LIG   0.0000
  33 H           10.3201     1.7297     4.5852 H            1    LIG   0.0000
@<TRIPOS>BOND
   1        1        2 1
   2        2        3 1
   3        3        4 2
   4        4        5 1
   5        5        6 1
   6        6        7 1
   7        7        8 1
   8        8        9 ar
   9        9       10 ar
  10       10       11 ar
  11       11       12 ar
  12       12       13 ar
  13       13        8 ar
  14       13       14 1
  15       14       15 1
  16       15       16 1
  17       16       17 1
  18       17       12 1
  19        6       18 2
  20       18        3 1
  21        1       19 1
  22        1       20 1
  23        1       21 1
  24        2       22 1
  25        2       23 1
  26        4       24 1
  27       10       25 1
  28       14       26 1
  29       14       27 1
  30       15       28 1
  31       15       29 1
  32       16       30 1
  33       16       31 1
  34       17       32 1
  35       17       33 1

@<TRIPOS>MOLECULE

  33   35
SMALL
USER_CHARGES
@<TRIPOS>ATOM
   1 C1          -0.2836     0.6643     1.7417 C.3          1    LIG   0.0000
   2 C2           1.0000     1.0000     1.0000 C.3          1    LIG   0.0000
   3 C3           1.8761     1.8761     1.8761 C.2          1    LIG   0.0000
   4 C4           1.4043     2.2170     3.1050 C.2          1    LIG   0.0000
   5 S5           2.6386     3.1839     3.7743 S.3          1    LIG   0.0000
   6 C6           3.6985     3.1143     2.4421 C.2          1    LIG   0.0000
   7 S7           5.2462     3.9002     2.3703 S.3          1    LIG   0.0000
   8 C8           6.3179     2.6873     3.0104 C.ar         1    LIG   0.0000
   9 N9           6.9051     1.7898     2.2030 N.ar         1    LIG   0.0000
  10 C10          7.7314     0.8458     2.6768 C.ar         1    LIG   0.0000
  11 N11          8.0050     0.7735     3.9865 N.ar         1    LIG   0.0000
  12 C12          7.4474     1.6523     4.8351 C.ar         1    LIG   0.0000
  13 C13          6.5694     2.6329     4.3799 C.ar         1    LIG   0.0000
  14 C14          5.9029     3.5973     5.3534 C.3          1    LIG   0.0000
  15 C15          6.6748     3.7050     6.6569 C.3          1    LIG   0.0000
  16 C16          6.8153     2.2879     7.1876 C.3          1    LIG   0.0000
  17 C17          7.8223     1.5662     6.3052 C.3          1    LIG   0.0000
  18 N18          3.1098     2.3715     1.5323 N.2          1    LIG   0.0000
  19 H           -0.8609     0.0869     1.1644 H            1    LIG   0.0000
  20 H           -0.0627     0.1763     2.5862 H            1    LIG   0.0000
  21 H           -0.7715     1.5087     1.9626 H            1    LIG   0.0000
  22 H            1.4880     0.1556     0.7791 H            1    LIG   0.0000
  23 H            0.7791     1.4880     0.1556 H            1    LIG   0.0000
  24 H            0.5324     1.9593     3.5213 H            1    LIG   0.0000
  25 H            8.1472     0.1898     2.0469 H            1    LIG   0.0000
  26 H            4.9784     3.2710     5.5505 H            1    LIG   0.0000
  27 H            5.8539     4.5021     4.9303 H            1    LIG   0.0000
  28 H            6.1731     4.2715     7.3106 H            1    LIG   0.0000
  29 H            7.5769     4.1044     6.4931 H            1    LIG   0.0000
  30 H            7.1421     2.3081     8.1324 H            1    LIG   0.0000
  31 H            5.9321     1.8204     7.1503 H            1    LIG   0.0000
  32 H            8.7226     1.9817     6.4346 H            1    LIG   0.0000
  33 H            7.8576     0.6038     6.5744 H            1    LIG   0.0000
@<TRIPOS>BOND
   1        1        2 1
   2        2        3 1
   3        3        4 2
   4        4        5 1
   5        5        6 1
   6        6        7 1
   7        7        8 1
   8        8        9 ar
   9        9       10 ar
  10       10       11 ar
  11       11       12 ar
  12       12       13 ar
  13       13        8 ar
  14       13       14 1
  15       14       15 1
  16       15       16 1
  17       16       17 1
  18       17       12 1
  19        6       18 2
  20       18        3 1
  21        1       19 1
  22        1       20 1
  23        1       21 1
  24        2       22 1
  25        2       23 1
  26        4       24 1
  27       10       25 1
  28       14       26 1
  29       14       27 1
  30       15       28 1
  31       15       29 1
  32       16       30 1
  33       16       31 1
  34       17       32 1
  35       17       33 1

@<TRIPOS>MOLECULE

  33   35
SMALL
USER_CHARGES
@<TRIPOS>ATOM
   1 C1          -0.2836     0.6643     1.7417 C.3          1    LIG   0.0000
   2 C2           1.0000     1.0000     1.0000 C.3          1    LIG   0.0000
   3 C3           1.8761     1.8761     1.8761 C.2          1    LIG   0.0000
   4 C4           1.4043     2.2170     3.1050 C.2          1    LIG   0.0000
   5 S5           2.6386     3.1839     3.7743 S.3          1    LIG   0.0000
   6 C6           3.6985     3.1143     2.4421 C.2          1    LIG   0.0000
   7 S7           5.2462     3.9002     2.3703 S.3          1    LIG   0.0000
   8 C8           6.3179     2.6873     3.0104 C.ar         1    LIG   0.0000
   9 N9           6.5804     2.6231     4.3254 N.ar         1    LIG   0.0000
  10 C10          7.4054     1.6984     4.8379 C.ar         1    LIG   0.0000
  11 N11          7.9946     0.7943     4.0435 N.ar         1    LIG   0.0000
  12 C12          7.7595     0.8125     2.7215 C.ar         1    LIG   0.0000
  13 C13          6.9241     1.7711     2.1533 C.ar         1    LIG   0.0000
  14 C14          6.6985     1.8163     0.6469 C.3          1    LIG   0.0000
  15 C15          7.0098     0.4826    -0.0095 C.3          1    LIG   0.0000
  16 C16          8.4324     0.1309     0.3934 C.3          1    LIG   0.0000
  17 C17          8.4086    -0.2602     1.8631 C.3          1    LIG   0.0000
  18 N18          3.1098     2.3715     1.5323 N.2          1    LIG   0.0000
  19 H           -0.8609     0.0869     1.1644 H            1    LIG   0.0000
  20 H           -0.0627     0.1763     2.5862 H            1    LIG   0.0000
  21 H           -0.7715     1.5087     1.9626 H            1    LIG   0.0000
  22 H            1.4880     0.1556     0.7791 H            1    LIG   0.0000
  23 H            0.7791     1.4880     0.1556 H            1    LIG   0.0000
  24 H            0.5324     1.9593     3.5213 H            1    LIG   0.0000
  25 H            7.5825     1.6834     5.8220 H            1    LIG   0.0000
  26 H            7.2912     2.5180     0.2516 H            1    LIG   0.0000
  27 H            5.7423     2.0491     0.4695 H            1    LIG   0.0000
  28 H            6.9411     0.5617    -1.0040 H            1    LIG   0.0000
  29 H            6.3749    -0.2191     0.3137 H            1    LIG   0.0000
  30 H            8.7640    -0.6345    -0.1582 H            1    LIG   0.0000
  31 H            9.0302     0.9214     0.2602 H            1    LIG   0.0000
  32 H            7.8930    -1.1112     1.9634 H            1    LIG   0.0000
  33 H            9.3480    -0.4008     2.1760 H            1    LIG   0.0000
@<TRIPOS>BOND
   1        1        2 1
   2        2        3 1
   3        3        4 2
   4        4        5 1
   5        5        6 1
   6        6        7 1
   7        7        8 1
   8        8        9 ar
   9        9       10 ar
  10       10       11 ar
  11       11       12 ar
  12       12       13 ar
  13       13        8 ar
  14       13       14 1
  15       14       15 1
  16       15       16 1
  17       16       17 1
  18       17       12 1
  19        6       18 2
  20       18        3 1
  21        1       19 1
  22        1       20 1
  23        1       21 1
  24        2       22 1
  25        2       23 1
  26        4       24 1
  27       10       25 1
  28       14       26 1
  29       14       27 1
  30       15       28 1
  31       15       29 1
  32       16       30 1
  33       16       31 1
  34       17       32 1
  35       17       33 1

@<TRIPOS>MOLECULE

  33   35
SMALL
USER_CHARGES
@<TRIPOS>ATOM
   1 C1          -0.2836     0.6643     1.7417 C.3          1    LIG   0.0000
   2 C2           1.0000     1.0000     1.0000 C.3          1    LIG   0.0000
   3 C3           1.8761     1.8761     1.8761 C.2          1    LIG   0.0000
   4 C4           1.4043     2.2170     3.1050 C.2          1    LIG   0.0000
   5 S5           2.6386     3.1839     3.7743 S.3          1    LIG   0.0000
   6 C6           3.6985     3.1143     2.4421 C.2          1    LIG   0.0000
   7 S7           5.2462     3.9002     2.3703 S.3          1    LIG   0.0000
   8 C8           4.8510     5.4566     1.6987 C.ar         1    LIG   0.0000
   9 N9           3.5847     5.7700     1.3820 N.ar         1    LIG   0.0000
  10 C10          3.2600     6.9622     0.8609 C.ar         1    LIG   0.0000
  11 N11          4.2010     7.8913     0.6446 N.ar         1    LIG   0.0000
  12 C12          5.4819     7.6287     0.9505 C.ar         1    LIG   0.0000
  13 C13          5.8571     6.3942     1.4745 C.ar         1    LIG   0.0000
  14 C14          7.3186     6.0849     1.7753 C.3          1    LIG   0.0000
  15 C15          8.1382     7.3517     1.9489 C.3          1    LIG   0.0000
  16 C16          7.9258     8.1730     0.6880 C.3          1    LIG   0.0000
  17 C17          6.5099     8.7269     0.7354 C.3          1    LIG   0.0000
  18 N18          3.1098     2.3715     1.5323 N.2          1    LIG   0.0000
  19 H           -0.8609     0.0869     1.1644 H            1    LIG   0.0000
  20 H           -0.0627     0.1763     2.5862 H            1    LIG   0.0000
  21 H           -0.7715     1.5087     1.9626 H            1    LIG   0.0000
  22 H            1.4880     0.1556     0.7791 H            1    LIG   0.0000
  23 H            0.7791     1.4880     0.1556 H            1    LIG   0.0000
  24 H            0.5324     1.9593     3.5213 H            1    LIG   0.0000
  25 H            2.3068     7.1597     0.6317 H            1    LIG   0.0000
  26 H            7.6996     5.5538     1.0184 H            1    LIG   0.0000
  27 H            7.3693     5.5484     2.6176 H            1    LIG   0.0000
  28 H            9.1064     7.1257     2.0559 H            1    LIG   0.0000
  29 H            7.8240     7.8603     2.7505 H            1    LIG   0.0000
  30 H            8.5851     8.9241     0.6548 H            1    LIG   0.0000
  31 H            8.0389     7.5942    -0.1196 H            1    LIG   0.0000
  32 H            6.4441     9.3837     1.4866 H            1    LIG   0.0000
  33 H            6.3139     9.1890    -0.1295 H            1    LIG   0.0000
@<TRIPOS>BOND
   1        1        2 1
   2        2        3 1
   3        3        4 2
   4        4        5 1
   5        5        6 1
   6        6        7 1
   7        7        8 1
   8        8        9 ar
   9        9       10 ar
  10       10       11 ar
  11       11       12 ar
  12       12       13 ar
  13       13        8 ar
  14       13       14 1
  15       14       15 1
  16       15       16 1
  17       16       17 1
  18       17       12 1
  19        6       18 2
  20       18        3 1
  21        1       19 1
  22        1       20 1
  23        1       21 1
  24        2       22 1
  25        2       23 1
  26        4       24 1
  27       10       25 1
  28       14       26 1
  29       14       27 1
  30       15       28 1
  31       15       29 1
  32       16       30 1
  33       16       31 1
  34       17       32 1
  35       17       33 1

@<TRIPOS>MOLECULE

  33   35
SMALL
USER_CHARGES
@<TRIPOS>ATOM
   1 C1          -0.2836     0.6643     1.7417 C.3          1    LIG   0.0000
   2 C2           1.0000     1.0000     1.0000 C.3          1    LIG   0.0000
   3 C3           1.8761     1.8761     1.8761 C.2          1    LIG   0.0000
   4 C4           1.4043     2.2170     3.1050 C.2          1    LIG   0.0000
   5 S5           2.6386     3.1839     3.7743 S.3          1    LIG   0.0000
   6 C6           3.6985     3.1143     2.4421 C.2          1    LIG   0.0000
   7 S7           5.2462     3.9002     2.3703 S.3          1    LIG   0.0000
   8 C8           4.8510     5.4566     1.6987 C.ar         1    LIG   0.0000
   9 N9           4.5320     6.4902     2.4937 N.ar         1    LIG   0.0000
  10 C10          4.2216     7.6962     1.9960 C.ar         1    LIG   0.0000
  11 N11          4.2275     7.9105     0.6733 N.ar         1    LIG   0.0000
  12 C12          4.5459     6.9102    -0.1641 C.ar         1    LIG   0.0000
  13 C13          4.8540     5.6402     0.3175 C.ar         1    LIG   0.0000
  14 C14          5.1682     4.4969    -0.6396 C.3          1    LIG   0.0000
  15 C15          5.6124     5.0067    -1.9996 C.3          1    LIG   0.0000
  16 C16          4.5136     5.9372    -2.4858 C.3          1    LIG   0.0000
  17 C17          4.5884     7.2082    -1.6536 C.3          1    LIG   0.0000
  18 N18          3.1098     2.3715     1.5323 N.2          1    LIG   0.0000
  19 H           -0.8609     0.0869     1.1644 H            1    LIG   0.0000
  20 H           -0.0627     0.1763     2.5862 H            1    LIG   0.0000
  21 H           -0.7715     1.5087     1.9626 H            1    LIG   0.0000
  22 H            1.4880     0.1556     0.7791 H            1    LIG   0.0000
  23 H            0.7791     1.4880     0.1556 H            1    LIG   0.0000
  24 H            0.5324     1.9593     3.5213 H            1    LIG   0.0000
  25 H            3.9834     8.4424     2.6177 H            1    LIG   0.0000
  26 H            4.3477     3.9372    -0.7558 H            1    LIG   0.0000
  27 H            5.8998     3.9387    -0.2483 H            1    LIG   0.0000
  28 H            5.7261     4.2432    -2.6353 H            1    LIG   0.0000
  29 H            6.4762     5.5039    -1.9177 H            1    LIG   0.0000
  30 H            4.6523     6.1534    -3.4522 H            1    LIG   0.0000
  31 H            3.6208     5.5030    -2.3661 H            1    LIG   0.0000
  32 H            5.4426     7.6835    -1.8644 H            1    LIG   0.0000
  33 H            3.8136     7.7952    -1.8886 H            1    LIG   0.0000
@<TRIPOS>BOND
   1        1        2 1
   2        2        3 1
   3        3        4 2
   4        4        5 1
   5        5        6 1
   6        6        7 1
   7        7        8 1
   8        8        9 ar
   9        9       10 ar
  10       10       11 ar
  11       11       12 ar
  12       12       13 ar
  13       13        8 ar
  14       13       14 1
  15       14       15 1
  16       15       16 1
  17       16       17 1
  18       17       12 1
  19        6       18 2
  20       18        3 1
  21        1       19 1
  22        1       20 1
  23        1       21 1
  24        2       22 1
  25        2       23 1
  26        4       24 1
  27       10       25 1
  28       14       26 1
  29       14       27 1
  30       15       28 1
  31       15       29 1
  32       16       30 1
  33       16       31 1
  34       17       32 1
  35       17       33 1

@<TRIPOS>MOLECULE

  33   35
SMALL
USER_CHARGES
@<TRIPOS>ATOM
   1 C1          -0.2836     0.6643     1.7417 C.3          1    LIG   0.0000
   2 C2           1.0000     1.0000     1.0000 C.3          1    LIG   0.0000
   3 C3           1.8761     1.8761     1.8761 C.2          1    LIG   0.0000
   4 C4           1.4043     2.2170     3.1050 C.2          1    LIG   0.0000
   5 S5           2.6386     3.1839     3.7743 S.3          1    LIG   0.0000
   6 C6           3.6985     3.1143     2.4421 C.2          1    LIG   0.0000
   7 S7           5.2462     3.9002     2.3703 S.3          1    LIG   0.0000
   8 C8           4.8510     5.4566     1.6987 C.ar         1    LIG   0.0000
   9 N9           4.8566     5.6569     0.3714 N.ar         1    LIG   0.0000
  10 C10          4.5581     6.8490    -0.1656 C.ar         1    LIG   0.0000
  11 N11          4.2340     7.8876     0.6165 N.ar         1    LIG   0.0000
  12 C12          4.2079     7.7368     1.9506 C.ar         1    LIG   0.0000
  13 C13          4.5316     6.5184     2.5426 C.ar         1    LIG   0.0000
  14 C14          4.5465     6.3662     4.0587 C.3          1    LIG   0.0000
  15 C15          3.7028     7.4296     4.7399 C.3          1    LIG   0.0000
  16 C16          4.2252     8.7689     4.2468 C.3          1    LIG   0.0000
  17 C17          3.7878     8.9258     2.7984 C.3          1    LIG   0.0000
  18 N18          3.1098     2.3715     1.5323 N.2          1    LIG   0.0000
  19 H           -0.8609     0.0869     1.1644 H            1    LIG   0.0000
  20 H           -0.0627     0.1763     2.5862 H            1    LIG   0.0000
  21 H           -0.7715     1.5087     1.9626 H            1    LIG   0.0000
  22 H            1.4880     0.1556     0.7791 H            1    LIG   0.0000
  23 H            0.7791     1.4880     0.1556 H            1    LIG   0.0000
  24 H            0.5324     1.9593     3.5213 H            1    LIG   0.0000
  25 H            4.5776     6.9638    -1.1588 H            1    LIG   0.0000
  26 H            5.4893     6.4442     4.3828 H            1    LIG   0.0000
  27 H            4.1856     5.4646     4.2972 H            1    LIG   0.0000
  28 H            3.7994     7.3647     5.7331 H            1    LIG   0.0000
  29 H            2.7405     7.3203     4.4907 H            1    LIG   0.0000
  30 H            3.8437     9.5089     4.8006 H            1    LIG   0.0000
  31 H            5.2232     8.7886     4.3060 H            1    LIG   0.0000
  32 H            2.7917     9.0092     2.7682 H            1    LIG   0.0000
  33 H            4.2032     9.7543     2.4227 H            1    LIG   0.0000
@<TRIPOS>BOND
   1        1        2 1
   2        2        3 1
   3        3        4 2
   4        4        5 1
   5        5        6 1
   6        6        7 1
   7        7        8 1
   8        8        9 ar
   9        9       10 ar
  10       10       11 ar
  11       11       12 ar
  12       12       13 ar
  13       13        8 ar
  14       13       14 1
  15       14       15 1
  16       15       16 1
  17       16       17 1
  18       17       12 1
  19        6       18 2
  20       18        3 1
  21        1       19 1
  22        1       20 1
  23        1       21 1
  24        2       22 1
  25        2       23 1
  26        4       24 1
  27       10       25 1
  28       14       26 1
  29       14       27 1
  30       15       28 1
  31       15       29 1
  32       16       30 1
  33       16       31 1
  34       17       32 1
  35       17       33 1

