@<TRIPOS>MOLECULE
*****
 33 35 0 0 0
SMALL
USER_CHARGES

@<TRIPOS>ATOM
      1 C1         -0.2836    0.6643    1.7417 C.3     1  LIG1        0.0000
      2 C2          1.0000    1.0000    1.0000 C.3     1  LIG1        0.0000
      3 C3          1.8761    1.8761    1.8761 C.2     1  LIG1        0.0000
      4 C4          1.4043    2.2170    3.1050 C.2     1  LIG1        0.0000
      5 S5          2.6386    3.1839    3.7743 S.3     1  LIG1        0.0000
      6 C6          3.6985    3.1143    2.4421 C.2     1  LIG1        0.0000
      7 S7          5.2462    3.9002    2.3703 S.3     1  LIG1        0.0000
      8 C8          5.3450    4.6865    3.9199 C.ar    1  LIG1        0.0000
      9 N9          5.8814    4.0596    4.9788 N.ar    1  LIG1        0.0000
     10 C10         5.9640    4.6468    6.1817 C.ar    1  LIG1        0.0000
     11 N11         5.5144    5.8959    6.3634 N.ar    1  LIG1        0.0000
     12 C12         4.9746    6.5680    5.3338 C.ar    1  LIG1        0.0000
     13 C13         4.8551    5.9816    4.0763 C.ar    1  LIG1        0.0000
     14 C14         4.1987    6.7318    2.9237 C.3     1  LIG1        0.0000
     15 C15         4.2126    8.2337    3.1488 C.3     1  LIG1        0.0000
     16 C16         3.5520    8.4690    4.4970 C.3     1  LIG1        0.0000
     17 C17         4.5219    7.9992    5.5704 C.3     1  LIG1        0.0000
     18 N18         3.1098    2.3715    1.5323 N.2     1  LIG1        0.0000
     19 H          -0.8609    0.0869    1.1644 H       1  LIG1        0.0000
     20 H          -0.0627    0.1763    2.5862 H       1  LIG1        0.0000
     21 H          -0.7715    1.5087    1.9626 H       1  LIG1        0.0000
     22 H           1.4880    0.1556    0.7791 H       1  LIG1        0.0000
     23 H           0.7791    1.4880    0.1556 H       1  LIG1        0.0000
     24 H           0.5324    1.9593    3.5213 H       1  LIG1        0.0000
     25 H           6.3649    4.1478    6.9500 H       1  LIG1        0.0000
     26 H           3.2505    6.4262    2.8367 H       1  LIG1        0.0000
     27 H           4.6939    6.5262    2.0797 H       1  LIG1        0.0000
     28 H           3.6995    8.6969    2.4262 H       1  LIG1        0.0000
     29 H           5.1531    8.5735    3.1600 H       1  LIG1        0.0000
     30 H           3.3565    9.4425    4.6161 H       1  LIG1        0.0000
     31 H           2.7002    7.9484    4.5552 H       1  LIG1        0.0000
     32 H           5.3234    8.5971    5.5668 H       1  LIG1        0.0000
     33 H           4.0701    8.0528    6.4609 H       1  LIG1        0.0000
@<TRIPOS>BOND
     1     1     2    1
     2     2     3    1
     3     3     4    2
     4     4     5    1
     5     5     6    1
     6     6     7    1
     7     7     8    1
     8     8     9   ar
     9     9    10   ar
    10    10    11   ar
    11    11    12   ar
    12    12    13   ar
    13    13     8   ar
    14    13    14    1
    15    14    15    1
    16    15    16    1
    17    16    17    1
    18    17    12    1
    19     6    18    2
    20    18     3    1
    21     1    19    1
    22     1    20    1
    23     1    21    1
    24     2    22    1
    25     2    23    1
    26     4    24    1
    27    10    25    1
    28    14    26    1
    29    14    27    1
    30    15    28    1
    31    15    29    1
    32    16    30    1
    33    16    31    1
    34    17    32    1
    35    17    33    1
