@<TRIPOS>MOLECULE
*****
 33 35 0 0 0
SMALL
USER_CHARGES

@<TRIPOS>ATOM
      1 C1         -0.2836    0.6643    1.7417 C.3     1  LIG1        0.0000
      2 C2          1.0000    1.0000    1.0000 C.3     1  LIG1        0.0000
      3 C3          1.8761    1.8761    1.8761 C.2     1  LIG1        0.0000
      4 C4          1.4043    2.2170    3.1050 C.2     1  LIG1        0.0000
      5 S5          2.6386    3.1839    3.7743 S.3     1  LIG1        0.0000
      6 C6          3.6985    3.1143    2.4421 C.2     1  LIG1        0.0000
      7 S7          5.2462    3.9002    2.3703 S.3     1  LIG1        0.0000
      8 C8          5.8239    3.4573    0.7892 C.ar    1  LIG1        0.0000
      9 N9          6.5501    2.3431    0.6071 N.ar    1  LIG1        0.0000
     10 C10         7.0070    1.9861   -0.6021 C.ar    1  LIG1        0.0000
     11 N11         6.7428    2.7367   -1.6802 N.ar    1  LIG1        0.0000
     12 C12         6.0150    3.8579   -1.5515 C.ar    1  LIG1        0.0000
     13 C13         5.5417    4.2687   -0.3078 C.ar    1  LIG1        0.0000
     14 C14         4.7568    5.5665   -0.1606 C.3     1  LIG1        0.0000
     15 C15         4.1386    6.0033   -1.4773 C.3     1  LIG1        0.0000
     16 C16         5.2788    6.0794   -2.4792 C.3     1  LIG1        0.0000
     17 C17         5.6969    4.6540   -2.8062 C.3     1  LIG1        0.0000
     18 N18         3.1098    2.3715    1.5323 N.2     1  LIG1        0.0000
     19 H          -0.8609    0.0869    1.1644 H       1  LIG1        0.0000
     20 H          -0.0627    0.1763    2.5862 H       1  LIG1        0.0000
     21 H          -0.7715    1.5087    1.9626 H       1  LIG1        0.0000
     22 H           1.4880    0.1556    0.7791 H       1  LIG1        0.0000
     23 H           0.7791    1.4880    0.1556 H       1  LIG1        0.0000
     24 H           0.5324    1.9593    3.5213 H       1  LIG1        0.0000
     25 H           7.5498    1.1520   -0.7002 H       1  LIG1        0.0000
     26 H           5.3748    6.2841    0.1608 H       1  LIG1        0.0000
     27 H           4.0276    5.4297    0.5099 H       1  LIG1        0.0000
     28 H           3.7060    6.8993   -1.3764 H       1  LIG1        0.0000
     29 H           3.4572    5.3361   -1.7781 H       1  LIG1        0.0000
     30 H           4.9727    6.5444   -3.3099 H       1  LIG1        0.0000
     31 H           6.0491    6.5785   -2.0824 H       1  LIG1        0.0000
     32 H           4.9512    4.2021   -3.2960 H       1  LIG1        0.0000
     33 H           6.5099    4.6804   -3.3878 H       1  LIG1        0.0000
@<TRIPOS>BOND
     1     1     2    1
     2     2     3    1
     3     3     4    2
     4     4     5    1
     5     5     6    1
     6     6     7    1
     7     7     8    1
     8     8     9   ar
     9     9    10   ar
    10    10    11   ar
    11    11    12   ar
    12    12    13   ar
    13    13     8   ar
    14    13    14    1
    15    14    15    1
    16    15    16    1
    17    16    17    1
    18    17    12    1
    19     6    18    2
    20    18     3    1
    21     1    19    1
    22     1    20    1
    23     1    21    1
    24     2    22    1
    25     2    23    1
    26     4    24    1
    27    10    25    1
    28    14    26    1
    29    14    27    1
    30    15    28    1
    31    15    29    1
    32    16    30    1
    33    16    31    1
    34    17    32    1
    35    17    33    1
