@<TRIPOS>MOLECULE
*****
 33 35 0 0 0
SMALL
USER_CHARGES

@<TRIPOS>ATOM
      1 C1         -0.2836    0.6643    1.7417 C.3     1  LIG1        0.0000
      2 C2          1.0000    1.0000    1.0000 C.3     1  LIG1        0.0000
      3 C3          1.8761    1.8761    1.8761 C.2     1  LIG1        0.0000
      4 C4          1.4043    2.2170    3.1050 C.2     1  LIG1        0.0000
      5 S5          2.6386    3.1839    3.7743 S.3     1  LIG1        0.0000
      6 C6          3.6985    3.1143    2.4421 C.2     1  LIG1        0.0000
      7 S7          5.2462    3.9002    2.3703 S.3     1  LIG1        0.0000
      8 C8          4.8510    5.4566    1.6987 C.ar    1  LIG1        0.0000
      9 N9          4.5320    6.4902    2.4937 N.ar    1  LIG1        0.0000
     10 C10         4.2216    7.6962    1.9960 C.ar    1  LIG1        0.0000
     11 N11         4.2275    7.9105    0.6733 N.ar    1  LIG1        0.0000
     12 C12         4.5459    6.9102   -0.1641 C.ar    1  LIG1        0.0000
     13 C13         4.8540    5.6402    0.3175 C.ar    1  LIG1        0.0000
     14 C14         5.1682    4.4969   -0.6396 C.3     1  LIG1        0.0000
     15 C15         5.6124    5.0067   -1.9996 C.3     1  LIG1        0.0000
     16 C16         4.5136    5.9372   -2.4858 C.3     1  LIG1        0.0000
     17 C17         4.5884    7.2082   -1.6536 C.3     1  LIG1        0.0000
     18 N18         3.1098    2.3715    1.5323 N.2     1  LIG1        0.0000
     19 H          -0.8609    0.0869    1.1644 H       1  LIG1        0.0000
     20 H          -0.0627    0.1763    2.5862 H       1  LIG1        0.0000
     21 H          -0.7715    1.5087    1.9626 H       1  LIG1        0.0000
     22 H           1.4880    0.1556    0.7791 H       1  LIG1        0.0000
     23 H           0.7791    1.4880    0.1556 H       1  LIG1        0.0000
     24 H           0.5324    1.9593    3.5213 H       1  LIG1        0.0000
     25 H           3.9834    8.4424    2.6177 H       1  LIG1        0.0000
     26 H           4.3477    3.9372   -0.7558 H       1  LIG1        0.0000
     27 H           5.8998    3.9387   -0.2483 H       1  LIG1        0.0000
     28 H           5.7261    4.2432   -2.6353 H       1  LIG1        0.0000
     29 H           6.4762    5.5039   -1.9177 H       1  LIG1        0.0000
     30 H           4.6523    6.1534   -3.4522 H       1  LIG1        0.0000
     31 H           3.6208    5.5030   -2.3661 H       1  LIG1        0.0000
     32 H           5.4426    7.6835   -1.8644 H       1  LIG1        0.0000
     33 H           3.8136    7.7952   -1.8886 H       1  LIG1        0.0000
@<TRIPOS>BOND
     1     1     2    1
     2     2     3    1
     3     3     4    2
     4     4     5    1
     5     5     6    1
     6     6     7    1
     7     7     8    1
     8     8     9   ar
     9     9    10   ar
    10    10    11   ar
    11    11    12   ar
    12    12    13   ar
    13    13     8   ar
    14    13    14    1
    15    14    15    1
    16    15    16    1
    17    16    17    1
    18    17    12    1
    19     6    18    2
    20    18     3    1
    21     1    19    1
    22     1    20    1
    23     1    21    1
    24     2    22    1
    25     2    23    1
    26     4    24    1
    27    10    25    1
    28    14    26    1
    29    14    27    1
    30    15    28    1
    31    15    29    1
    32    16    30    1
    33    16    31    1
    34    17    32    1
    35    17    33    1
