@<TRIPOS>MOLECULE

  50   53
SMALL
USER_CHARGES
@<TRIPOS>ATOM
   1 C1          -1.1229    -0.1220     1.0000 C.3          1    LIG   0.0000
   2 C2           0.3887    -0.2817     1.0000 C.3          1    LIG   0.0000
   3 O3           1.0000     1.0000     1.0000 O.3          1    LIG   0.0000
   4 C4           2.3100     1.0000     1.0000 C.2          1    LIG   0.0000
   5 O5           2.9100    -0.0392     1.0000 O.2          1    LIG   0.0000
   6 C6           3.0355     2.2566     1.0000 C.2          1    LIG   0.0000
   7 C7           4.4061     2.2275     0.9986 C.2          1    LIG   0.0000
   8 O8           5.0842     1.0592     0.9978 O.3          1    LIG   0.0000
   9 C9           5.0914     3.4730     0.9984 C.2          1    LIG   0.0000
  10 C10          6.6121     3.4690     0.9960 C.3          1    LIG   0.0000
  11 C11          7.1173     3.7176    -0.4161 C.ar         1    LIG   0.0000
  12 C12          7.3426     2.6398    -1.2661 C.ar         1    LIG   0.0000
  13 C13          7.8055     2.8764    -2.5562 C.ar         1    LIG   0.0000
  14 C14          8.0381     4.1798    -2.9845 C.ar         1    LIG   0.0000
  15 C15          7.8098     5.2517    -2.1278 C.ar         1    LIG   0.0000
  16 C16          7.3474     5.0238    -0.8355 C.ar         1    LIG   0.0000
  17 C17          4.3882     4.6519     1.0003 C.2          1    LIG   0.0000
  18 O18          5.0946     5.8028     0.9998 O.3          1    LIG  -1.0000
  19 N19          3.0129     4.6887     1.0022 N.pl3        1    LIG   0.0000
  20 C20          2.3517     3.5028     1.0000 C.2          1    LIG   0.0000
  21 N21          1.0595     3.7558     1.0005 N.2          1    LIG   0.0000
  22 C22          0.8642     5.1077     1.0017 C.ar         1    LIG   0.0000
  23 C23         -0.3130     5.8489     1.0004 C.ar         1    LIG   0.0000
  24 C24         -0.2671     7.2392     1.0012 C.ar         1    LIG   0.0000
  25 C25         -1.5729     8.0179     0.9995 C.3          1    LIG   0.0000
  26 C26          0.9687     7.8788     1.0025 C.ar         1    LIG   0.0000
  27 C27          1.0363     9.3977     1.0023 C.3          1    LIG   0.0000
  28 C28          2.1295     7.1107     1.0043 C.ar         1    LIG   0.0000
  29 C29          2.0993     5.7178     1.0046 C.ar         1    LIG   0.0000
  30 H           -1.5534    -1.0246     1.0000 H            1    LIG   0.0000
  31 H           -1.4049     0.3818     1.8165 H            1    LIG   0.0000
  32 H           -1.4049     0.3818     0.1835 H            1    LIG   0.0000
  33 H            0.6707    -0.7855     1.8165 H            1    LIG   0.0000
  34 H            0.6707    -0.7855     0.1835 H            1    LIG   0.0000
  35 H            6.0842     1.0615     0.9968 H            1    LIG   0.0000
  36 H            6.9482     4.1899     1.6021 H            1    LIG   0.0000
  37 H            6.9436     2.5819     1.3173 H            1    LIG   0.0000
  38 H            7.1735     1.7053    -0.9531 H            1    LIG   0.0000
  39 H            7.9713     2.1095    -3.1762 H            1    LIG   0.0000
  40 H            8.3709     4.3467    -3.9126 H            1    LIG   0.0000
  41 H            7.9781     6.1864    -2.4408 H            1    LIG   0.0000
  42 H            7.1822     5.7905    -0.2151 H            1    LIG   0.0000
  43 H           -1.1963     5.3802     0.9988 H            1    LIG   0.0000
  44 H           -2.3421     7.3788     0.9987 H            1    LIG   0.0000
  45 H           -1.6187     8.5937     1.8158 H            1    LIG   0.0000
  46 H           -1.6168     8.5933     0.1828 H            1    LIG   0.0000
  47 H            1.9930     9.6888     1.0033 H            1    LIG   0.0000
  48 H            0.5812     9.7515     0.1852 H            1    LIG   0.0000
  49 H            0.5793     9.7519     1.8182 H            1    LIG   0.0000
  50 H            3.0155     7.5745     1.0054 H            1    LIG   0.0000
@<TRIPOS>BOND
   1        1        2 1
   2        2        3 1
   3        3        4 1
   4        4        5 2
   5        4        6 1
   6        6        7 2
   7        7        8 1
   8        7        9 1
   9        9       10 1
  10       10       11 1
  11       11       12 ar
  12       12       13 ar
  13       13       14 ar
  14       14       15 ar
  15       15       16 ar
  16       16       11 ar
  17        9       17 2
  18       17       18 1
  19       17       19 1
  20       19       20 1
  21       20        6 1
  22       20       21 2
  23       21       22 1
  24       22       23 ar
  25       23       24 ar
  26       24       25 1
  27       24       26 ar
  28       26       27 1
  29       26       28 ar
  30       28       29 ar
  31       29       22 ar
  32       29       19 1
  33        1       30 1
  34        1       31 1
  35        1       32 1
  36        2       33 1
  37        2       34 1
  38        8       35 1
  39       10       36 1
  40       10       37 1
  41       12       38 1
  42       13       39 1
  43       14       40 1
  44       15       41 1
  45       16       42 1
  46       23       43 1
  47       25       44 1
  48       25       45 1
  49       25       46 1
  50       27       47 1
  51       27       48 1
  52       27       49 1
  53       28       50 1

@<TRIPOS>MOLECULE

  50   53
SMALL
USER_CHARGES
@<TRIPOS>ATOM
   1 C1          -1.1229    -0.1220     1.0000 C.3          1    LIG   0.0000
   2 C2           0.3887    -0.2817     1.0000 C.3          1    LIG   0.0000
   3 O3           1.0000     1.0000     1.0000 O.3          1    LIG   0.0000
   4 C4           2.3100     1.0000     1.0000 C.2          1    LIG   0.0000
   5 O5           2.9100    -0.0392     1.0000 O.2          1    LIG   0.0000
   6 C6           3.0355     2.2566     1.0000 C.2          1    LIG   0.0000
   7 C7           4.4061     2.2275     0.9986 C.2          1    LIG   0.0000
   8 O8           5.0842     1.0592     0.9978 O.3          1    LIG   0.0000
   9 C9           5.0914     3.4730     0.9984 C.2          1    LIG   0.0000
  10 C10          6.6121     3.4690     0.9960 C.3          1    LIG   0.0000
  11 C11          7.1216     3.7155     2.4070 C.ar         1    LIG   0.0000
  12 C12          7.3551     5.0177     2.8366 C.ar         1    LIG   0.0000
  13 C13          7.8219     5.2341     4.1288 C.ar         1    LIG   0.0000
  14 C14          8.0502     4.1545     4.9766 C.ar         1    LIG   0.0000
  15 C15          7.8138     2.8555     4.5387 C.ar         1    LIG   0.0000
  16 C16          7.3474     2.6303     3.2474 C.ar         1    LIG   0.0000
  17 C17          4.3882     4.6519     1.0003 C.2          1    LIG   0.0000
  18 O18          5.0946     5.8028     0.9998 O.3          1    LIG  -1.0000
  19 N19          3.0129     4.6887     1.0022 N.pl3        1    LIG   0.0000
  20 C20          2.3517     3.5028     1.0000 C.2          1    LIG   0.0000
  21 N21          1.0595     3.7558     1.0005 N.2          1    LIG   0.0000
  22 C22          0.8642     5.1077     1.0017 C.ar         1    LIG   0.0000
  23 C23         -0.3130     5.8489     1.0004 C.ar         1    LIG   0.0000
  24 C24         -0.2671     7.2392     1.0012 C.ar         1    LIG   0.0000
  25 C25         -1.5729     8.0179     0.9995 C.3          1    LIG   0.0000
  26 C26          0.9687     7.8788     1.0025 C.ar         1    LIG   0.0000
  27 C27          1.0363     9.3977     1.0023 C.3          1    LIG   0.0000
  28 C28          2.1295     7.1107     1.0043 C.ar         1    LIG   0.0000
  29 C29          2.0993     5.7178     1.0046 C.ar         1    LIG   0.0000
  30 H           -1.5534    -1.0246     1.0000 H            1    LIG   0.0000
  31 H           -1.4049     0.3818     1.8165 H            1    LIG   0.0000
  32 H           -1.4049     0.3818     0.1835 H            1    LIG   0.0000
  33 H            0.6707    -0.7855     1.8165 H            1    LIG   0.0000
  34 H            0.6707    -0.7855     0.1835 H            1    LIG   0.0000
  35 H            6.0842     1.0615     0.9968 H            1    LIG   0.0000
  36 H            6.9426     2.5824     0.6724 H            1    LIG   0.0000
  37 H            6.9464     4.1908     0.3900 H            1    LIG   0.0000
  38 H            7.1891     5.7898     2.2232 H            1    LIG   0.0000
  39 H            7.9936     6.1659     4.4488 H            1    LIG   0.0000
  40 H            8.3858     4.3132     5.9052 H            1    LIG   0.0000
  41 H            7.9791     2.0833     5.1522 H            1    LIG   0.0000
  42 H            7.1764     1.6985     2.9270 H            1    LIG   0.0000
  43 H           -1.1963     5.3802     0.9988 H            1    LIG   0.0000
  44 H           -2.3421     7.3788     0.9987 H            1    LIG   0.0000
  45 H           -1.6187     8.5937     1.8158 H            1    LIG   0.0000
  46 H           -1.6168     8.5933     0.1828 H            1    LIG   0.0000
  47 H            1.9930     9.6888     1.0033 H            1    LIG   0.0000
  48 H            0.5812     9.7515     0.1852 H            1    LIG   0.0000
  49 H            0.5793     9.7519     1.8182 H            1    LIG   0.0000
  50 H            3.0155     7.5745     1.0054 H            1    LIG   0.0000
@<TRIPOS>BOND
   1        1        2 1
   2        2        3 1
   3        3        4 1
   4        4        5 2
   5        4        6 1
   6        6        7 2
   7        7        8 1
   8        7        9 1
   9        9       10 1
  10       10       11 1
  11       11       12 ar
  12       12       13 ar
  13       13       14 ar
  14       14       15 ar
  15       15       16 ar
  16       16       11 ar
  17        9       17 2
  18       17       18 1
  19       17       19 1
  20       19       20 1
  21       20        6 1
  22       20       21 2
  23       21       22 1
  24       22       23 ar
  25       23       24 ar
  26       24       25 1
  27       24       26 ar
  28       26       27 1
  29       26       28 ar
  30       28       29 ar
  31       29       22 ar
  32       29       19 1
  33        1       30 1
  34        1       31 1
  35        1       32 1
  36        2       33 1
  37        2       34 1
  38        8       35 1
  39       10       36 1
  40       10       37 1
  41       12       38 1
  42       13       39 1
  43       14       40 1
  44       15       41 1
  45       16       42 1
  46       23       43 1
  47       25       44 1
  48       25       45 1
  49       25       46 1
  50       27       47 1
  51       27       48 1
  52       27       49 1
  53       28       50 1

@<TRIPOS>MOLECULE

  50   53
SMALL
USER_CHARGES
@<TRIPOS>ATOM
   1 C1          -1.1229    -0.1220     1.0000 C.3          1    LIG   0.0000
   2 C2           0.3887    -0.2817     1.0000 C.3          1    LIG   0.0000
   3 O3           1.0000     1.0000     1.0000 O.3          1    LIG   0.0000
   4 C4           2.3100     1.0000     1.0000 C.2          1    LIG   0.0000
   5 O5           2.9100    -0.0392     1.0000 O.2          1    LIG   0.0000
   6 C6           3.0355     2.2566     1.0000 C.2          1    LIG   0.0000
   7 C7           2.4650     3.3482     1.6020 C.2          1    LIG   0.0000
   8 O8           1.2504     3.2726     2.1884 O.3          1    LIG   0.0000
   9 C9           3.1976     4.5663     1.5876 C.2          1    LIG   0.0000
  10 C10          2.5879     5.7923     2.2490 C.3          1    LIG   0.0000
  11 C11          3.1985     5.9802     3.6286 C.ar         1    LIG   0.0000
  12 C12          2.6057     5.3747     4.7317 C.ar         1    LIG   0.0000
  13 C13          3.1704     5.5524     5.9903 C.ar         1    LIG   0.0000
  14 C14          4.3162     6.3286     6.1360 C.ar         1    LIG   0.0000
  15 C15          4.9025     6.9302     5.0273 C.ar         1    LIG   0.0000
  16 C16          4.3436     6.7581     3.7649 C.ar         1    LIG   0.0000
  17 C17          4.4303     4.6276     0.9866 C.2          1    LIG   0.0000
  18 O18          5.0783     5.8122     1.0053 O.3          1    LIG  -1.0000
  19 N19          5.0087     3.5364     0.3803 N.pl3        1    LIG   0.0000
  20 C20          4.3156     2.3689     0.3923 C.2          1    LIG   0.0000
  21 N21          5.0361     1.4599    -0.2309 N.2          1    LIG   0.0000
  22 C22          6.2059     2.0236    -0.6545 C.ar         1    LIG   0.0000
  23 C23          7.2758     1.4675    -1.3484 C.ar         1    LIG   0.0000
  24 C24          8.3804     2.2465    -1.6768 C.ar         1    LIG   0.0000
  25 C25          9.5321     1.6064    -2.4354 C.3          1    LIG   0.0000
  26 C26          8.4030     3.5866    -1.3027 C.ar         1    LIG   0.0000
  27 C27          9.6033     4.4516    -1.6529 C.3          1    LIG   0.0000
  28 C28          7.3178     4.1153    -0.6095 C.ar         1    LIG   0.0000
  29 C29          6.2043     3.3478    -0.2747 C.ar         1    LIG   0.0000
  30 H           -1.5534    -1.0246     1.0000 H            1    LIG   0.0000
  31 H           -1.4049     0.3818     1.8165 H            1    LIG   0.0000
  32 H           -1.4049     0.3818     0.1835 H            1    LIG   0.0000
  33 H            0.6707    -0.7855     1.8165 H            1    LIG   0.0000
  34 H            0.6707    -0.7855     0.1835 H            1    LIG   0.0000
  35 H            0.8532     4.0816     2.6217 H            1    LIG   0.0000
  36 H            2.7737     6.6000     1.6895 H            1    LIG   0.0000
  37 H            1.5996     5.6673     2.3361 H            1    LIG   0.0000
  38 H            1.7825     4.8178     4.6211 H            1    LIG   0.0000
  39 H            2.7530     5.1223     6.7907 H            1    LIG   0.0000
  40 H            4.7200     6.4546     7.0422 H            1    LIG   0.0000
  41 H            5.7261     7.4866     5.1376 H            1    LIG   0.0000
  42 H            4.7604     7.1888     2.9644 H            1    LIG   0.0000
  43 H            7.2506     0.5033    -1.6123 H            1    LIG   0.0000
  44 H            9.3233     0.6438    -2.6080 H            1    LIG   0.0000
  45 H            9.6621     2.0807    -3.3061 H            1    LIG   0.0000
  46 H           10.3682     1.6738    -1.8910 H            1    LIG   0.0000
  47 H            9.4558     5.3801    -1.3123 H            1    LIG   0.0000
  48 H           10.4249     4.0683    -1.2309 H            1    LIG   0.0000
  49 H            9.7188     4.4752    -2.6460 H            1    LIG   0.0000
  50 H            7.3381     5.0789    -0.3428 H            1    LIG   0.0000
@<TRIPOS>BOND
   1        1        2 1
   2        2        3 1
   3        3        4 1
   4        4        5 2
   5        4        6 1
   6        6        7 2
   7        7        8 1
   8        7        9 1
   9        9       10 1
  10       10       11 1
  11       11       12 ar
  12       12       13 ar
  13       13       14 ar
  14       14       15 ar
  15       15       16 ar
  16       16       11 ar
  17        9       17 2
  18       17       18 1
  19       17       19 1
  20       19       20 1
  21       20        6 1
  22       20       21 2
  23       21       22 1
  24       22       23 ar
  25       23       24 ar
  26       24       25 1
  27       24       26 ar
  28       26       27 1
  29       26       28 ar
  30       28       29 ar
  31       29       22 ar
  32       29       19 1
  33        1       30 1
  34        1       31 1
  35        1       32 1
  36        2       33 1
  37        2       34 1
  38        8       35 1
  39       10       36 1
  40       10       37 1
  41       12       38 1
  42       13       39 1
  43       14       40 1
  44       15       41 1
  45       16       42 1
  46       23       43 1
  47       25       44 1
  48       25       45 1
  49       25       46 1
  50       27       47 1
  51       27       48 1
  52       27       49 1
  53       28       50 1

@<TRIPOS>MOLECULE

  50   53
SMALL
USER_CHARGES
@<TRIPOS>ATOM
   1 C1          -1.1229    -0.1220     1.0000 C.3          1    LIG   0.0000
   2 C2           0.3887    -0.2817     1.0000 C.3          1    LIG   0.0000
   3 O3           1.0000     1.0000     1.0000 O.3          1    LIG   0.0000
   4 C4           2.3100     1.0000     1.0000 C.2          1    LIG   0.0000
   5 O5           2.9100    -0.0392     1.0000 O.2          1    LIG   0.0000
   6 C6           3.0355     2.2566     1.0000 C.2          1    LIG   0.0000
   7 C7           2.4650     3.3482     1.6020 C.2          1    LIG   0.0000
   8 O8           1.2504     3.2726     2.1884 O.3          1    LIG   0.0000
   9 C9           3.1976     4.5663     1.5876 C.2          1    LIG   0.0000
  10 C10          2.5879     5.7923     2.2490 C.3          1    LIG   0.0000
  11 C11          1.9726     6.6883     1.1861 C.ar         1    LIG   0.0000
  12 C12          2.7455     7.6791     0.5896 C.ar         1    LIG   0.0000
  13 C13          2.1743     8.4948    -0.3815 C.ar         1    LIG   0.0000
  14 C14          0.8436     8.3152    -0.7469 C.ar         1    LIG   0.0000
  15 C15          0.0781     7.3217    -0.1452 C.ar         1    LIG   0.0000
  16 C16          0.6416     6.5019     0.8274 C.ar         1    LIG   0.0000
  17 C17          4.4303     4.6276     0.9866 C.2          1    LIG   0.0000
  18 O18          5.0783     5.8122     1.0053 O.3          1    LIG  -1.0000
  19 N19          5.0087     3.5364     0.3803 N.pl3        1    LIG   0.0000
  20 C20          4.3156     2.3689     0.3923 C.2          1    LIG   0.0000
  21 N21          5.0361     1.4599    -0.2309 N.2          1    LIG   0.0000
  22 C22          6.2059     2.0236    -0.6545 C.ar         1    LIG   0.0000
  23 C23          7.2758     1.4675    -1.3484 C.ar         1    LIG   0.0000
  24 C24          8.3804     2.2465    -1.6768 C.ar         1    LIG   0.0000
  25 C25          9.5321     1.6064    -2.4354 C.3          1    LIG   0.0000
  26 C26          8.4030     3.5866    -1.3027 C.ar         1    LIG   0.0000
  27 C27          9.6033     4.4516    -1.6529 C.3          1    LIG   0.0000
  28 C28          7.3178     4.1153    -0.6095 C.ar         1    LIG   0.0000
  29 C29          6.2043     3.3478    -0.2747 C.ar         1    LIG   0.0000
  30 H           -1.5534    -1.0246     1.0000 H            1    LIG   0.0000
  31 H           -1.4049     0.3818     1.8165 H            1    LIG   0.0000
  32 H           -1.4049     0.3818     0.1835 H            1    LIG   0.0000
  33 H            0.6707    -0.7855     1.8165 H            1    LIG   0.0000
  34 H            0.6707    -0.7855     0.1835 H            1    LIG   0.0000
  35 H            0.8532     4.0816     2.6217 H            1    LIG   0.0000
  36 H            1.8797     5.5055     2.8941 H            1    LIG   0.0000
  37 H            3.3000     6.2960     2.7381 H            1    LIG   0.0000
  38 H            3.7013     7.8035     0.8559 H            1    LIG   0.0000
  39 H            2.7200     9.2106    -0.8171 H            1    LIG   0.0000
  40 H            0.4357     8.9032    -1.4454 H            1    LIG   0.0000
  41 H           -0.8775     7.1967    -0.4119 H            1    LIG   0.0000
  42 H            0.0958     5.7865     1.2638 H            1    LIG   0.0000
  43 H            7.2506     0.5033    -1.6123 H            1    LIG   0.0000
  44 H            9.3233     0.6438    -2.6080 H            1    LIG   0.0000
  45 H            9.6621     2.0807    -3.3061 H            1    LIG   0.0000
  46 H           10.3682     1.6738    -1.8910 H            1    LIG   0.0000
  47 H            9.4558     5.3801    -1.3123 H            1    LIG   0.0000
  48 H           10.4249     4.0683    -1.2309 H            1    LIG   0.0000
  49 H            9.7188     4.4752    -2.6460 H            1    LIG   0.0000
  50 H            7.3381     5.0789    -0.3428 H            1    LIG   0.0000
@<TRIPOS>BOND
   1        1        2 1
   2        2        3 1
   3        3        4 1
   4        4        5 2
   5        4        6 1
   6        6        7 2
   7        7        8 1
   8        7        9 1
   9        9       10 1
  10       10       11 1
  11       11       12 ar
  12       12       13 ar
  13       13       14 ar
  14       14       15 ar
  15       15       16 ar
  16       16       11 ar
  17        9       17 2
  18       17       18 1
  19       17       19 1
  20       19       20 1
  21       20        6 1
  22       20       21 2
  23       21       22 1
  24       22       23 ar
  25       23       24 ar
  26       24       25 1
  27       24       26 ar
  28       26       27 1
  29       26       28 ar
  30       28       29 ar
  31       29       22 ar
  32       29       19 1
  33        1       30 1
  34        1       31 1
  35        1       32 1
  36        2       33 1
  37        2       34 1
  38        8       35 1
  39       10       36 1
  40       10       37 1
  41       12       38 1
  42       13       39 1
  43       14       40 1
  44       15       41 1
  45       16       42 1
  46       23       43 1
  47       25       44 1
  48       25       45 1
  49       25       46 1
  50       27       47 1
  51       27       48 1
  52       27       49 1
  53       28       50 1

@<TRIPOS>MOLECULE

  50   53
SMALL
USER_CHARGES
@<TRIPOS>ATOM
   1 C1          -1.1229    -0.1220     1.0000 C.3          1    LIG   0.0000
   2 C2           0.3887    -0.2817     1.0000 C.3          1    LIG   0.0000
   3 O3           1.0000     1.0000     1.0000 O.3          1    LIG   0.0000
   4 C4           2.3100     1.0000     1.0000 C.2          1    LIG   0.0000
   5 O5           2.9100    -0.0392     1.0000 O.2          1    LIG   0.0000
   6 C6           3.0355     2.2566     1.0000 C.2          1    LIG   0.0000
   7 C7           2.4650     3.3482     1.6020 C.2          1    LIG   0.0000
   8 O8           1.2504     3.2726     2.1884 O.3          1    LIG   0.0000
   9 C9           3.1976     4.5663     1.5876 C.2          1    LIG   0.0000
  10 C10          2.5879     5.7923     2.2490 C.3          1    LIG   0.0000
  11 C11          1.2676     6.1283     1.5743 C.ar         1    LIG   0.0000
  12 C12          1.2520     6.9929     0.4848 C.ar         1    LIG   0.0000
  13 C13          0.0396     7.2953    -0.1260 C.ar         1    LIG   0.0000
  14 C14         -1.1405     6.7349     0.3533 C.ar         1    LIG   0.0000
  15 C15         -1.1155     5.8710     1.4433 C.ar         1    LIG   0.0000
  16 C16          0.0929     5.5637     2.0605 C.ar         1    LIG   0.0000
  17 C17          4.4303     4.6276     0.9866 C.2          1    LIG   0.0000
  18 O18          5.0783     5.8122     1.0053 O.3          1    LIG  -1.0000
  19 N19          5.0087     3.5364     0.3803 N.pl3        1    LIG   0.0000
  20 C20          4.3156     2.3689     0.3923 C.2          1    LIG   0.0000
  21 N21          5.0361     1.4599    -0.2309 N.2          1    LIG   0.0000
  22 C22          6.2059     2.0236    -0.6545 C.ar         1    LIG   0.0000
  23 C23          7.2758     1.4675    -1.3484 C.ar         1    LIG   0.0000
  24 C24          8.3804     2.2465    -1.6768 C.ar         1    LIG   0.0000
  25 C25          9.5321     1.6064    -2.4354 C.3          1    LIG   0.0000
  26 C26          8.4030     3.5866    -1.3027 C.ar         1    LIG   0.0000
  27 C27          9.6033     4.4516    -1.6529 C.3          1    LIG   0.0000
  28 C28          7.3178     4.1153    -0.6095 C.ar         1    LIG   0.0000
  29 C29          6.2043     3.3478    -0.2747 C.ar         1    LIG   0.0000
  30 H           -1.5534    -1.0246     1.0000 H            1    LIG   0.0000
  31 H           -1.4049     0.3818     1.8165 H            1    LIG   0.0000
  32 H           -1.4049     0.3818     0.1835 H            1    LIG   0.0000
  33 H            0.6707    -0.7855     1.8165 H            1    LIG   0.0000
  34 H            0.6707    -0.7855     0.1835 H            1    LIG   0.0000
  35 H            0.8532     4.0816     2.6217 H            1    LIG   0.0000
  36 H            2.4286     5.6037     3.2181 H            1    LIG   0.0000
  37 H            3.2148     6.5662     2.1588 H            1    LIG   0.0000
  38 H            2.1032     7.3926     0.1444 H            1    LIG   0.0000
  39 H            0.0159     7.9158    -0.9099 H            1    LIG   0.0000
  40 H           -2.0107     6.9542    -0.0879 H            1    LIG   0.0000
  41 H           -1.9664     5.4707     1.7834 H            1    LIG   0.0000
  42 H            0.1168     4.9439     2.8449 H            1    LIG   0.0000
  43 H            7.2506     0.5033    -1.6123 H            1    LIG   0.0000
  44 H            9.3233     0.6438    -2.6080 H            1    LIG   0.0000
  45 H            9.6621     2.0807    -3.3061 H            1    LIG   0.0000
  46 H           10.3682     1.6738    -1.8910 H            1    LIG   0.0000
  47 H            9.4558     5.3801    -1.3123 H            1    LIG   0.0000
  48 H           10.4249     4.0683    -1.2309 H            1    LIG   0.0000
  49 H            9.7188     4.4752    -2.6460 H            1    LIG   0.0000
  50 H            7.3381     5.0789    -0.3428 H            1    LIG   0.0000
@<TRIPOS>BOND
   1        1        2 1
   2        2        3 1
   3        3        4 1
   4        4        5 2
   5        4        6 1
   6        6        7 2
   7        7        8 1
   8        7        9 1
   9        9       10 1
  10       10       11 1
  11       11       12 ar
  12       12       13 ar
  13       13       14 ar
  14       14       15 ar
  15       15       16 ar
  16       16       11 ar
  17        9       17 2
  18       17       18 1
  19       17       19 1
  20       19       20 1
  21       20        6 1
  22       20       21 2
  23       21       22 1
  24       22       23 ar
  25       23       24 ar
  26       24       25 1
  27       24       26 ar
  28       26       27 1
  29       26       28 ar
  30       28       29 ar
  31       29       22 ar
  32       29       19 1
  33        1       30 1
  34        1       31 1
  35        1       32 1
  36        2       33 1
  37        2       34 1
  38        8       35 1
  39       10       36 1
  40       10       37 1
  41       12       38 1
  42       13       39 1
  43       14       40 1
  44       15       41 1
  45       16       42 1
  46       23       43 1
  47       25       44 1
  48       25       45 1
  49       25       46 1
  50       27       47 1
  51       27       48 1
  52       27       49 1
  53       28       50 1

@<TRIPOS>MOLECULE

  50   53
SMALL
USER_CHARGES
@<TRIPOS>ATOM
   1 C1          -1.1229    -0.1220     1.0000 C.3          1    LIG   0.0000
   2 C2           0.3887    -0.2817     1.0000 C.3          1    LIG   0.0000
   3 O3           1.0000     1.0000     1.0000 O.3          1    LIG   0.0000
   4 C4           2.3100     1.0000     1.0000 C.2          1    LIG   0.0000
   5 O5           2.9100    -0.0392     1.0000 O.2          1    LIG   0.0000
   6 C6           3.0355     2.2566     1.0000 C.2          1    LIG   0.0000
   7 C7           2.4638     3.3489     0.4004 C.2          1    LIG   0.0000
   8 O8           1.2485     3.2737    -0.1845 O.3          1    LIG   0.0000
   9 C9           3.1962     4.5672     0.4152 C.2          1    LIG   0.0000
  10 C10          2.5845     5.7943    -0.2422 C.3          1    LIG   0.0000
  11 C11          1.9721     6.6882     0.8242 C.ar         1    LIG   0.0000
  12 C12          0.6432     6.5078     1.1933 C.ar         1    LIG   0.0000
  13 C13          0.0907     7.3305     2.1692 C.ar         1    LIG   0.0000
  14 C14          0.8655     8.3209     2.7653 C.ar         1    LIG   0.0000
  15 C15          2.1938     8.4941     2.3902 C.ar         1    LIG   0.0000
  16 C16          2.7540     7.6758     1.4143 C.ar         1    LIG   0.0000
  17 C17          4.4306     4.6274     1.0128 C.2          1    LIG   0.0000
  18 O18          5.0781     5.8123     0.9951 O.3          1    LIG  -1.0000
  19 N19          5.0106     3.5353     1.6158 N.pl3        1    LIG   0.0000
  20 C20          4.3156     2.3689     1.6077 C.2          1    LIG   0.0000
  21 N21          5.0366     1.4596     2.2300 N.2          1    LIG   0.0000
  22 C22          6.2074     2.0227     2.6515 C.ar         1    LIG   0.0000
  23 C23          7.2761     1.4674     3.3477 C.ar         1    LIG   0.0000
  24 C24          8.3815     2.2459     3.6747 C.ar         1    LIG   0.0000
  25 C25          9.5316     1.6067     4.4363 C.3          1    LIG   0.0000
  26 C26          8.4051     3.5854     3.2983 C.ar         1    LIG   0.0000
  27 C27          9.6053     4.4504     3.6490 C.3          1    LIG   0.0000
  28 C28          7.3215     4.1131     2.6021 C.ar         1    LIG   0.0000
  29 C29          6.2082     3.3455     2.2667 C.ar         1    LIG   0.0000
  30 H           -1.5534    -1.0246     1.0000 H            1    LIG   0.0000
  31 H           -1.4049     0.3818     1.8165 H            1    LIG   0.0000
  32 H           -1.4049     0.3818     0.1835 H            1    LIG   0.0000
  33 H            0.6707    -0.7855     1.8165 H            1    LIG   0.0000
  34 H            0.6707    -0.7855     0.1835 H            1    LIG   0.0000
  35 H            0.8504     4.0832    -0.6161 H            1    LIG   0.0000
  36 H            3.2951     6.2990    -0.7324 H            1    LIG   0.0000
  37 H            1.8744     5.5086    -0.8857 H            1    LIG   0.0000
  38 H            0.0911     5.7943     0.7618 H            1    LIG   0.0000
  39 H           -0.8637     7.2104     2.4426 H            1    LIG   0.0000
  40 H            0.4656     8.9109     3.4667 H            1    LIG   0.0000
  41 H            2.7462     9.2070     2.8221 H            1    LIG   0.0000
  42 H            3.7081     7.7963     1.1402 H            1    LIG   0.0000
  43 H            7.2496     0.5039     3.6144 H            1    LIG   0.0000
  44 H            9.3222     0.6445     4.6102 H            1    LIG   0.0000
  45 H           10.3686     1.6728     3.8931 H            1    LIG   0.0000
  46 H            9.6605     2.0824     5.3064 H            1    LIG   0.0000
  47 H            9.4587     5.3785     3.3065 H            1    LIG   0.0000
  48 H            9.7193     4.4757     4.6421 H            1    LIG   0.0000
  49 H           10.4274     4.0661     3.2288 H            1    LIG   0.0000
  50 H            7.3428     5.0761     2.3334 H            1    LIG   0.0000
@<TRIPOS>BOND
   1        1        2 1
   2        2        3 1
   3        3        4 1
   4        4        5 2
   5        4        6 1
   6        6        7 2
   7        7        8 1
   8        7        9 1
   9        9       10 1
  10       10       11 1
  11       11       12 ar
  12       12       13 ar
  13       13       14 ar
  14       14       15 ar
  15       15       16 ar
  16       16       11 ar
  17        9       17 2
  18       17       18 1
  19       17       19 1
  20       19       20 1
  21       20        6 1
  22       20       21 2
  23       21       22 1
  24       22       23 ar
  25       23       24 ar
  26       24       25 1
  27       24       26 ar
  28       26       27 1
  29       26       28 ar
  30       28       29 ar
  31       29       22 ar
  32       29       19 1
  33        1       30 1
  34        1       31 1
  35        1       32 1
  36        2       33 1
  37        2       34 1
  38        8       35 1
  39       10       36 1
  40       10       37 1
  41       12       38 1
  42       13       39 1
  43       14       40 1
  44       15       41 1
  45       16       42 1
  46       23       43 1
  47       25       44 1
  48       25       45 1
  49       25       46 1
  50       27       47 1
  51       27       48 1
  52       27       49 1
  53       28       50 1

@<TRIPOS>MOLECULE

  50   53
SMALL
USER_CHARGES
@<TRIPOS>ATOM
   1 C1          -1.1229    -0.1220     1.0000 C.3          1    LIG   0.0000
   2 C2           0.3887    -0.2817     1.0000 C.3          1    LIG   0.0000
   3 O3           1.0000     1.0000     1.0000 O.3          1    LIG   0.0000
   4 C4           2.3100     1.0000     1.0000 C.2          1    LIG   0.0000
   5 O5           2.9100    -0.0392     1.0000 O.2          1    LIG   0.0000
   6 C6           3.0355     2.2566     1.0000 C.2          1    LIG   0.0000
   7 C7           2.4638     3.3489     0.4004 C.2          1    LIG   0.0000
   8 O8           1.2485     3.2737    -0.1845 O.3          1    LIG   0.0000
   9 C9           3.1962     4.5672     0.4152 C.2          1    LIG   0.0000
  10 C10          2.5845     5.7943    -0.2422 C.3          1    LIG   0.0000
  11 C11          3.1911     5.9848    -1.6231 C.ar         1    LIG   0.0000
  12 C12          4.3361     6.7608    -1.7707 C.ar         1    LIG   0.0000
  13 C13          4.8839     6.9304    -3.0379 C.ar         1    LIG   0.0000
  14 C14          4.2875     6.3269    -4.1408 C.ar         1    LIG   0.0000
  15 C15          3.1427     5.5524    -3.9839 C.ar         1    LIG   0.0000
  16 C16          2.5879     5.3782    -2.7200 C.ar         1    LIG   0.0000
  17 C17          4.4306     4.6274     1.0128 C.2          1    LIG   0.0000
  18 O18          5.0781     5.8123     0.9951 O.3          1    LIG  -1.0000
  19 N19          5.0106     3.5353     1.6158 N.pl3        1    LIG   0.0000
  20 C20          4.3156     2.3689     1.6077 C.2          1    LIG   0.0000
  21 N21          5.0366     1.4596     2.2300 N.2          1    LIG   0.0000
  22 C22          6.2074     2.0227     2.6515 C.ar         1    LIG   0.0000
  23 C23          7.2761     1.4674     3.3477 C.ar         1    LIG   0.0000
  24 C24          8.3815     2.2459     3.6747 C.ar         1    LIG   0.0000
  25 C25          9.5316     1.6067     4.4363 C.3          1    LIG   0.0000
  26 C26          8.4051     3.5854     3.2983 C.ar         1    LIG   0.0000
  27 C27          9.6053     4.4504     3.6490 C.3          1    LIG   0.0000
  28 C28          7.3215     4.1131     2.6021 C.ar         1    LIG   0.0000
  29 C29          6.2082     3.3455     2.2667 C.ar         1    LIG   0.0000
  30 H           -1.5534    -1.0246     1.0000 H            1    LIG   0.0000
  31 H           -1.4049     0.3818     1.8165 H            1    LIG   0.0000
  32 H           -1.4049     0.3818     0.1835 H            1    LIG   0.0000
  33 H            0.6707    -0.7855     1.8165 H            1    LIG   0.0000
  34 H            0.6707    -0.7855     0.1835 H            1    LIG   0.0000
  35 H            0.8504     4.0832    -0.6161 H            1    LIG   0.0000
  36 H            1.5960     5.6693    -0.3267 H            1    LIG   0.0000
  37 H            2.7718     6.6010     0.3183 H            1    LIG   0.0000
  38 H            4.7606     7.1919    -0.9746 H            1    LIG   0.0000
  39 H            5.7068     7.4862    -3.1563 H            1    LIG   0.0000
  40 H            4.6837     6.4506    -5.0506 H            1    LIG   0.0000
  41 H            2.7184     5.1206    -4.7798 H            1    LIG   0.0000
  42 H            1.7646     4.8230    -2.6014 H            1    LIG   0.0000
  43 H            7.2496     0.5039     3.6144 H            1    LIG   0.0000
  44 H            9.3222     0.6445     4.6102 H            1    LIG   0.0000
  45 H           10.3686     1.6728     3.8931 H            1    LIG   0.0000
  46 H            9.6605     2.0824     5.3064 H            1    LIG   0.0000
  47 H            9.4587     5.3785     3.3065 H            1    LIG   0.0000
  48 H            9.7193     4.4757     4.6421 H            1    LIG   0.0000
  49 H           10.4274     4.0661     3.2288 H            1    LIG   0.0000
  50 H            7.3428     5.0761     2.3334 H            1    LIG   0.0000
@<TRIPOS>BOND
   1        1        2 1
   2        2        3 1
   3        3        4 1
   4        4        5 2
   5        4        6 1
   6        6        7 2
   7        7        8 1
   8        7        9 1
   9        9       10 1
  10       10       11 1
  11       11       12 ar
  12       12       13 ar
  13       13       14 ar
  14       14       15 ar
  15       15       16 ar
  16       16       11 ar
  17        9       17 2
  18       17       18 1
  19       17       19 1
  20       19       20 1
  21       20        6 1
  22       20       21 2
  23       21       22 1
  24       22       23 ar
  25       23       24 ar
  26       24       25 1
  27       24       26 ar
  28       26       27 1
  29       26       28 ar
  30       28       29 ar
  31       29       22 ar
  32       29       19 1
  33        1       30 1
  34        1       31 1
  35        1       32 1
  36        2       33 1
  37        2       34 1
  38        8       35 1
  39       10       36 1
  40       10       37 1
  41       12       38 1
  42       13       39 1
  43       14       40 1
  44       15       41 1
  45       16       42 1
  46       23       43 1
  47       25       44 1
  48       25       45 1
  49       25       46 1
  50       27       47 1
  51       27       48 1
  52       27       49 1
  53       28       50 1

@<TRIPOS>MOLECULE

  50   53
SMALL
USER_CHARGES
@<TRIPOS>ATOM
   1 C1          -1.1229    -0.1220     1.0000 C.3          1    LIG   0.0000
   2 C2           0.3887    -0.2817     1.0000 C.3          1    LIG   0.0000
   3 O3           1.0000     1.0000     1.0000 O.3          1    LIG   0.0000
   4 C4           2.3100     1.0000     1.0000 C.2          1    LIG   0.0000
   5 O5           2.9100    -0.0392     1.0000 O.2          1    LIG   0.0000
   6 C6           3.0355     2.2566     1.0000 C.2          1    LIG   0.0000
   7 C7           2.4638     3.3489     0.4004 C.2          1    LIG   0.0000
   8 O8           1.2485     3.2737    -0.1845 O.3          1    LIG   0.0000
   9 C9           3.1962     4.5672     0.4152 C.2          1    LIG   0.0000
  10 C10          2.5845     5.7943    -0.2422 C.3          1    LIG   0.0000
  11 C11          2.3381     5.5103    -1.7152 C.ar         1    LIG   0.0000
  12 C12          3.3327     5.7916    -2.6461 C.ar         1    LIG   0.0000
  13 C13          3.0985     5.5293    -3.9918 C.ar         1    LIG   0.0000
  14 C14          1.8801     4.9909    -4.3945 C.ar         1    LIG   0.0000
  15 C15          0.8912     4.7124    -3.4566 C.ar         1    LIG   0.0000
  16 C16          1.1170     4.9724    -2.1087 C.ar         1    LIG   0.0000
  17 C17          4.4306     4.6274     1.0128 C.2          1    LIG   0.0000
  18 O18          5.0781     5.8123     0.9951 O.3          1    LIG  -1.0000
  19 N19          5.0106     3.5353     1.6158 N.pl3        1    LIG   0.0000
  20 C20          4.3156     2.3689     1.6077 C.2          1    LIG   0.0000
  21 N21          5.0366     1.4596     2.2300 N.2          1    LIG   0.0000
  22 C22          6.2074     2.0227     2.6515 C.ar         1    LIG   0.0000
  23 C23          7.2761     1.4674     3.3477 C.ar         1    LIG   0.0000
  24 C24          8.3815     2.2459     3.6747 C.ar         1    LIG   0.0000
  25 C25          9.5316     1.6067     4.4363 C.3          1    LIG   0.0000
  26 C26          8.4051     3.5854     3.2983 C.ar         1    LIG   0.0000
  27 C27          9.6053     4.4504     3.6490 C.3          1    LIG   0.0000
  28 C28          7.3215     4.1131     2.6021 C.ar         1    LIG   0.0000
  29 C29          6.2082     3.3455     2.2667 C.ar         1    LIG   0.0000
  30 H           -1.5534    -1.0246     1.0000 H            1    LIG   0.0000
  31 H           -1.4049     0.3818     1.8165 H            1    LIG   0.0000
  32 H           -1.4049     0.3818     0.1835 H            1    LIG   0.0000
  33 H            0.6707    -0.7855     1.8165 H            1    LIG   0.0000
  34 H            0.6707    -0.7855     0.1835 H            1    LIG   0.0000
  35 H            0.8504     4.0832    -0.6161 H            1    LIG   0.0000
  36 H            1.7173     6.0144     0.2045 H            1    LIG   0.0000
  37 H            3.2115     6.5681    -0.1523 H            1    LIG   0.0000
  38 H            4.2064     6.1782    -2.3510 H            1    LIG   0.0000
  39 H            3.8059     5.7276    -4.6701 H            1    LIG   0.0000
  40 H            1.7147     4.8034    -5.3627 H            1    LIG   0.0000
  41 H            0.0176     4.3252    -3.7515 H            1    LIG   0.0000
  42 H            0.4095     4.7749    -1.4302 H            1    LIG   0.0000
  43 H            7.2496     0.5039     3.6144 H            1    LIG   0.0000
  44 H            9.3222     0.6445     4.6102 H            1    LIG   0.0000
  45 H           10.3686     1.6728     3.8931 H            1    LIG   0.0000
  46 H            9.6605     2.0824     5.3064 H            1    LIG   0.0000
  47 H            9.4587     5.3785     3.3065 H            1    LIG   0.0000
  48 H            9.7193     4.4757     4.6421 H            1    LIG   0.0000
  49 H           10.4274     4.0661     3.2288 H            1    LIG   0.0000
  50 H            7.3428     5.0761     2.3334 H            1    LIG   0.0000
@<TRIPOS>BOND
   1        1        2 1
   2        2        3 1
   3        3        4 1
   4        4        5 2
   5        4        6 1
   6        6        7 2
   7        7        8 1
   8        7        9 1
   9        9       10 1
  10       10       11 1
  11       11       12 ar
  12       12       13 ar
  13       13       14 ar
  14       14       15 ar
  15       15       16 ar
  16       16       11 ar
  17        9       17 2
  18       17       18 1
  19       17       19 1
  20       19       20 1
  21       20        6 1
  22       20       21 2
  23       21       22 1
  24       22       23 ar
  25       23       24 ar
  26       24       25 1
  27       24       26 ar
  28       26       27 1
  29       26       28 ar
  30       28       29 ar
  31       29       22 ar
  32       29       19 1
  33        1       30 1
  34        1       31 1
  35        1       32 1
  36        2       33 1
  37        2       34 1
  38        8       35 1
  39       10       36 1
  40       10       37 1
  41       12       38 1
  42       13       39 1
  43       14       40 1
  44       15       41 1
  45       16       42 1
  46       23       43 1
  47       25       44 1
  48       25       45 1
  49       25       46 1
  50       27       47 1
  51       27       48 1
  52       27       49 1
  53       28       50 1

@<TRIPOS>MOLECULE

  50   53
SMALL
USER_CHARGES
@<TRIPOS>ATOM
   1 C1          -1.1229    -0.1220     1.0000 C.3          1    LIG   0.0000
   2 C2           0.3887    -0.2817     1.0000 C.3          1    LIG   0.0000
   3 O3           1.0000     1.0000     1.0000 O.3          1    LIG   0.0000
   4 C4           2.3100     1.0000     1.0000 C.2          1    LIG   0.0000
   5 O5           2.9100    -0.0392     1.0000 O.2          1    LIG   0.0000
   6 C6           3.0355     2.2566     1.0000 C.2          1    LIG   0.0000
   7 C7           3.3643     2.8290    -0.2016 C.2          1    LIG   0.0000
   8 O8           3.0272     2.2468    -1.3729 O.3          1    LIG   0.0000
   9 C9           4.0748     4.0599    -0.1723 C.2          1    LIG   0.0000
  10 C10          4.4512     4.7166    -1.4912 C.3          1    LIG   0.0000
  11 C11          3.4622     5.8279    -1.8044 C.ar         1    LIG   0.0000
  12 C12          2.3157     5.5421    -2.5384 C.ar         1    LIG   0.0000
  13 C13          1.4166     6.5650    -2.8211 C.ar         1    LIG   0.0000
  14 C14          1.6683     7.8574    -2.3707 C.ar         1    LIG   0.0000
  15 C15          2.8173     8.1341    -1.6371 C.ar         1    LIG   0.0000
  16 C16          3.7221     7.1169    -1.3506 C.ar         1    LIG   0.0000
  17 C17          4.4112     4.6386     1.0262 C.2          1    LIG   0.0000
  18 O18          5.0856     5.8080     0.9898 O.3          1    LIG  -1.0000
  19 N19          4.0849     4.0697     2.2356 N.pl3        1    LIG   0.0000
  20 C20          3.4042     2.8951     2.2153 C.2          1    LIG   0.0000
  21 N21          3.1911     2.5251     3.4609 N.2          1    LIG   0.0000
  22 C22          3.7287     3.4538     4.3060 C.ar         1    LIG   0.0000
  23 C23          3.7542     3.5007     5.6961 C.ar         1    LIG   0.0000
  24 C24          4.3684     4.5629     6.3514 C.ar         1    LIG   0.0000
  25 C25          4.3777     4.5823     7.8716 C.3          1    LIG   0.0000
  26 C26          4.9554     5.5770     5.6010 C.ar         1    LIG   0.0000
  27 C27          5.6299     6.7456     6.3019 C.3          1    LIG   0.0000
  28 C28          4.9146     5.5027     4.2116 C.ar         1    LIG   0.0000
  29 C29          4.3042     4.4448     3.5414 C.ar         1    LIG   0.0000
  30 H           -1.5534    -1.0246     1.0000 H            1    LIG   0.0000
  31 H           -1.4049     0.3818     1.8165 H            1    LIG   0.0000
  32 H           -1.4049     0.3818     0.1835 H            1    LIG   0.0000
  33 H            0.6707    -0.7855     1.8165 H            1    LIG   0.0000
  34 H            0.6707    -0.7855     0.1835 H            1    LIG   0.0000
  35 H            3.2773     2.6820    -2.2378 H            1    LIG   0.0000
  36 H            5.3722     5.0998    -1.4219 H            1    LIG   0.0000
  37 H            4.4282     4.0342    -2.2218 H            1    LIG   0.0000
  38 H            2.1398     4.6115    -2.8593 H            1    LIG   0.0000
  39 H            0.5891     6.3716    -3.3481 H            1    LIG   0.0000
  40 H            1.0200     8.5908    -2.5755 H            1    LIG   0.0000
  41 H            2.9930     9.0646    -1.3155 H            1    LIG   0.0000
  42 H            4.5501     7.3102    -0.8242 H            1    LIG   0.0000
  43 H            3.3290     2.7674     6.2267 H            1    LIG   0.0000
  44 H            3.9080     3.7704     8.2182 H            1    LIG   0.0000
  45 H            5.3225     4.5862     8.1992 H            1    LIG   0.0000
  46 H            3.9086     5.4032     8.1974 H            1    LIG   0.0000
  47 H            5.9960     7.3777     5.6189 H            1    LIG   0.0000
  48 H            4.9617     7.2224     6.8730 H            1    LIG   0.0000
  49 H            6.3756     6.4054     6.8748 H            1    LIG   0.0000
  50 H            5.3379     6.2336     3.6763 H            1    LIG   0.0000
@<TRIPOS>BOND
   1        1        2 1
   2        2        3 1
   3        3        4 1
   4        4        5 2
   5        4        6 1
   6        6        7 2
   7        7        8 1
   8        7        9 1
   9        9       10 1
  10       10       11 1
  11       11       12 ar
  12       12       13 ar
  13       13       14 ar
  14       14       15 ar
  15       15       16 ar
  16       16       11 ar
  17        9       17 2
  18       17       18 1
  19       17       19 1
  20       19       20 1
  21       20        6 1
  22       20       21 2
  23       21       22 1
  24       22       23 ar
  25       23       24 ar
  26       24       25 1
  27       24       26 ar
  28       26       27 1
  29       26       28 ar
  30       28       29 ar
  31       29       22 ar
  32       29       19 1
  33        1       30 1
  34        1       31 1
  35        1       32 1
  36        2       33 1
  37        2       34 1
  38        8       35 1
  39       10       36 1
  40       10       37 1
  41       12       38 1
  42       13       39 1
  43       14       40 1
  44       15       41 1
  45       16       42 1
  46       23       43 1
  47       25       44 1
  48       25       45 1
  49       25       46 1
  50       27       47 1
  51       27       48 1
  52       27       49 1
  53       28       50 1

@<TRIPOS>MOLECULE

  50   53
SMALL
USER_CHARGES
@<TRIPOS>ATOM
   1 C1           0.1705    -0.7390     2.4331 C.3          1    LIG   0.0000
   2 C2           0.3887    -0.2817     1.0000 C.3          1    LIG   0.0000
   3 O3           1.0000     1.0000     1.0000 O.3          1    LIG   0.0000
   4 C4           2.3100     1.0000     1.0000 C.2          1    LIG   0.0000
   5 O5           2.9100    -0.0392     1.0000 O.2          1    LIG   0.0000
   6 C6           3.0355     2.2566     1.0000 C.2          1    LIG   0.0000
   7 C7           3.3643     2.8290    -0.2016 C.2          1    LIG   0.0000
   8 O8           3.0272     2.2468    -1.3729 O.3          1    LIG   0.0000
   9 C9           4.0748     4.0599    -0.1723 C.2          1    LIG   0.0000
  10 C10          4.4512     4.7166    -1.4912 C.3          1    LIG   0.0000
  11 C11          5.9073     4.4166    -1.8092 C.ar         1    LIG   0.0000
  12 C12          6.9016     5.2796    -1.3603 C.ar         1    LIG   0.0000
  13 C13          8.2311     4.9979    -1.6564 C.ar         1    LIG   0.0000
  14 C14          8.5549     3.8631    -2.3939 C.ar         1    LIG   0.0000
  15 C15          7.5540     3.0055    -2.8386 C.ar         1    LIG   0.0000
  16 C16          6.2216     3.2802    -2.5474 C.ar         1    LIG   0.0000
  17 C17          4.4112     4.6386     1.0262 C.2          1    LIG   0.0000
  18 O18          5.0856     5.8080     0.9898 O.3          1    LIG  -1.0000
  19 N19          4.0849     4.0697     2.2356 N.pl3        1    LIG   0.0000
  20 C20          3.4042     2.8951     2.2153 C.2          1    LIG   0.0000
  21 N21          3.1911     2.5251     3.4609 N.2          1    LIG   0.0000
  22 C22          3.7287     3.4538     4.3060 C.ar         1    LIG   0.0000
  23 C23          3.7542     3.5007     5.6961 C.ar         1    LIG   0.0000
  24 C24          4.3684     4.5629     6.3514 C.ar         1    LIG   0.0000
  25 C25          4.3777     4.5823     7.8716 C.3          1    LIG   0.0000
  26 C26          4.9554     5.5770     5.6010 C.ar         1    LIG   0.0000
  27 C27          5.6299     6.7456     6.3019 C.3          1    LIG   0.0000
  28 C28          4.9146     5.5027     4.2116 C.ar         1    LIG   0.0000
  29 C29          4.3042     4.4448     3.5414 C.ar         1    LIG   0.0000
  30 H           -0.2600    -1.6416     2.4331 H            1    LIG   0.0000
  31 H            1.0510    -0.7896     2.9045 H            1    LIG   0.0000
  32 H           -0.4229    -0.0866     2.9045 H            1    LIG   0.0000
  33 H            0.9821    -0.9340     0.5286 H            1    LIG   0.0000
  34 H           -0.4918    -0.2310     0.5286 H            1    LIG   0.0000
  35 H            3.2773     2.6820    -2.2378 H            1    LIG   0.0000
  36 H            3.8697     4.3566    -2.2207 H            1    LIG   0.0000
  37 H            4.3225     5.7057    -1.4198 H            1    LIG   0.0000
  38 H            6.6631     6.0935    -0.8305 H            1    LIG   0.0000
  39 H            8.9545     5.6111    -1.3392 H            1    LIG   0.0000
  40 H            9.5116     3.6632    -2.6052 H            1    LIG   0.0000
  41 H            7.7923     2.1912    -3.3679 H            1    LIG   0.0000
  42 H            5.4979     2.6676    -2.8651 H            1    LIG   0.0000
  43 H            3.3290     2.7674     6.2267 H            1    LIG   0.0000
  44 H            3.9080     3.7704     8.2182 H            1    LIG   0.0000
  45 H            5.3225     4.5862     8.1992 H            1    LIG   0.0000
  46 H            3.9086     5.4032     8.1974 H            1    LIG   0.0000
  47 H            5.9960     7.3777     5.6189 H            1    LIG   0.0000
  48 H            4.9617     7.2224     6.8730 H            1    LIG   0.0000
  49 H            6.3756     6.4054     6.8748 H            1    LIG   0.0000
  50 H            5.3379     6.2336     3.6763 H            1    LIG   0.0000
@<TRIPOS>BOND
   1        1        2 1
   2        2        3 1
   3        3        4 1
   4        4        5 2
   5        4        6 1
   6        6        7 2
   7        7        8 1
   8        7        9 1
   9        9       10 1
  10       10       11 1
  11       11       12 ar
  12       12       13 ar
  13       13       14 ar
  14       14       15 ar
  15       15       16 ar
  16       16       11 ar
  17        9       17 2
  18       17       18 1
  19       17       19 1
  20       19       20 1
  21       20        6 1
  22       20       21 2
  23       21       22 1
  24       22       23 ar
  25       23       24 ar
  26       24       25 1
  27       24       26 ar
  28       26       27 1
  29       26       28 ar
  30       28       29 ar
  31       29       22 ar
  32       29       19 1
  33        1       30 1
  34        1       31 1
  35        1       32 1
  36        2       33 1
  37        2       34 1
  38        8       35 1
  39       10       36 1
  40       10       37 1
  41       12       38 1
  42       13       39 1
  43       14       40 1
  44       15       41 1
  45       16       42 1
  46       23       43 1
  47       25       44 1
  48       25       45 1
  49       25       46 1
  50       27       47 1
  51       27       48 1
  52       27       49 1
  53       28       50 1

@<TRIPOS>MOLECULE

  50   53
SMALL
USER_CHARGES
@<TRIPOS>ATOM
   1 C1          -1.1229    -0.1220     1.0000 C.3          1    LIG   0.0000
   2 C2           0.3887    -0.2817     1.0000 C.3          1    LIG   0.0000
   3 O3           1.0000     1.0000     1.0000 O.3          1    LIG   0.0000
   4 C4           2.3100     1.0000     1.0000 C.2          1    LIG   0.0000
   5 O5           2.9100    -0.0392     1.0000 O.2          1    LIG   0.0000
   6 C6           3.0355     2.2566     1.0000 C.2          1    LIG   0.0000
   7 C7           3.3668     2.8276     2.2016 C.2          1    LIG   0.0000
   8 O8           3.0311     2.2445     3.3729 O.3          1    LIG   0.0000
   9 C9           4.0776     4.0583     2.1723 C.2          1    LIG   0.0000
  10 C10          4.4581     4.7126     3.4912 C.3          1    LIG   0.0000
  11 C11          5.9150     4.4118     3.8044 C.ar         1    LIG   0.0000
  12 C12          6.2407     3.2760     4.5384 C.ar         1    LIG   0.0000
  13 C13          7.5761     3.0088     4.8211 C.ar         1    LIG   0.0000
  14 C14          8.5696     3.8729     4.3707 C.ar         1    LIG   0.0000
  15 C15          8.2347     5.0064     3.6371 C.ar         1    LIG   0.0000
  16 C16          6.9013     5.2814     3.3506 C.ar         1    LIG   0.0000
  17 C17          4.4106     4.6390     0.9738 C.2          1    LIG   0.0000
  18 O18          5.0860     5.8078     1.0102 O.3          1    LIG  -1.0000
  19 N19          4.0810     4.0720    -0.2356 N.pl3        1    LIG   0.0000
  20 C20          3.4042     2.8951    -0.2153 C.2          1    LIG   0.0000
  21 N21          3.1902     2.5257    -1.4609 N.2          1    LIG   0.0000
  22 C22          3.7257     3.4555    -2.3060 C.ar         1    LIG   0.0000
  23 C23          3.7536     3.5011    -3.6961 C.ar         1    LIG   0.0000
  24 C24          4.3663     4.5641    -4.3514 C.ar         1    LIG   0.0000
  25 C25          4.3786     4.5818    -5.8716 C.3          1    LIG   0.0000
  26 C26          4.9511     5.5795    -3.6010 C.ar         1    LIG   0.0000
  27 C27          5.6259     6.7479    -4.3019 C.3          1    LIG   0.0000
  28 C28          4.9072     5.5070    -2.2116 C.ar         1    LIG   0.0000
  29 C29          4.2962     4.4494    -1.5414 C.ar         1    LIG   0.0000
  30 H           -1.5534    -1.0246     1.0000 H            1    LIG   0.0000
  31 H           -1.4049     0.3818     1.8165 H            1    LIG   0.0000
  32 H           -1.4049     0.3818     0.1835 H            1    LIG   0.0000
  33 H            0.6707    -0.7855     1.8165 H            1    LIG   0.0000
  34 H            0.6707    -0.7855     0.1835 H            1    LIG   0.0000
  35 H            3.2830     2.6787     4.2378 H            1    LIG   0.0000
  36 H            4.3294     5.7019     3.4219 H            1    LIG   0.0000
  37 H            3.8786     4.3515     4.2218 H            1    LIG   0.0000
  38 H            5.5227     2.6584     4.8593 H            1    LIG   0.0000
  39 H            7.8224     2.1954     5.3481 H            1    LIG   0.0000
  40 H            9.5288     3.6782     4.5755 H            1    LIG   0.0000
  41 H            8.9526     5.6238     3.3155 H            1    LIG   0.0000
  42 H            6.6547     6.0951     2.8242 H            1    LIG   0.0000
  43 H            3.3311     2.7662    -4.2267 H            1    LIG   0.0000
  44 H            3.9102     3.7691    -6.2182 H            1    LIG   0.0000
  45 H            3.9095     5.4020    -6.1992 H            1    LIG   0.0000
  46 H            5.3240     4.5860    -6.1974 H            1    LIG   0.0000
  47 H            5.9902     7.3810    -3.6189 H            1    LIG   0.0000
  48 H            6.3730     6.4077    -4.8730 H            1    LIG   0.0000
  49 H            4.9584     7.2236    -4.8748 H            1    LIG   0.0000
  50 H            5.3285     6.2391    -1.6763 H            1    LIG   0.0000
@<TRIPOS>BOND
   1        1        2 1
   2        2        3 1
   3        3        4 1
   4        4        5 2
   5        4        6 1
   6        6        7 2
   7        7        8 1
   8        7        9 1
   9        9       10 1
  10       10       11 1
  11       11       12 ar
  12       12       13 ar
  13       13       14 ar
  14       14       15 ar
  15       15       16 ar
  16       16       11 ar
  17        9       17 2
  18       17       18 1
  19       17       19 1
  20       19       20 1
  21       20        6 1
  22       20       21 2
  23       21       22 1
  24       22       23 ar
  25       23       24 ar
  26       24       25 1
  27       24       26 ar
  28       26       27 1
  29       26       28 ar
  30       28       29 ar
  31       29       22 ar
  32       29       19 1
  33        1       30 1
  34        1       31 1
  35        1       32 1
  36        2       33 1
  37        2       34 1
  38        8       35 1
  39       10       36 1
  40       10       37 1
  41       12       38 1
  42       13       39 1
  43       14       40 1
  44       15       41 1
  45       16       42 1
  46       23       43 1
  47       25       44 1
  48       25       45 1
  49       25       46 1
  50       27       47 1
  51       27       48 1
  52       27       49 1
  53       28       50 1

@<TRIPOS>MOLECULE

  50   53
SMALL
USER_CHARGES
@<TRIPOS>ATOM
   1 C1          -1.1229    -0.1220     1.0000 C.3          1    LIG   0.0000
   2 C2           0.3887    -0.2817     1.0000 C.3          1    LIG   0.0000
   3 O3           1.0000     1.0000     1.0000 O.3          1    LIG   0.0000
   4 C4           2.3100     1.0000     1.0000 C.2          1    LIG   0.0000
   5 O5           2.9100    -0.0392     1.0000 O.2          1    LIG   0.0000
   6 C6           3.0355     2.2566     1.0000 C.2          1    LIG   0.0000
   7 C7           3.3668     2.8276     2.2016 C.2          1    LIG   0.0000
   8 O8           3.0311     2.2445     3.3729 O.3          1    LIG   0.0000
   9 C9           4.0776     4.0583     2.1723 C.2          1    LIG   0.0000
  10 C10          4.4581     4.7126     3.4912 C.3          1    LIG   0.0000
  11 C11          3.4703     5.8236     3.8092 C.ar         1    LIG   0.0000
  12 C12          3.7204     7.1162     3.3603 C.ar         1    LIG   0.0000
  13 C13          2.8118     8.1267     3.6564 C.ar         1    LIG   0.0000
  14 C14          1.6671     7.8398     4.3939 C.ar         1    LIG   0.0000
  15 C15          1.4248     6.5442     4.8386 C.ar         1    LIG   0.0000
  16 C16          2.3290     5.5276     4.5474 C.ar         1    LIG   0.0000
  17 C17          4.4106     4.6390     0.9738 C.2          1    LIG   0.0000
  18 O18          5.0860     5.8078     1.0102 O.3          1    LIG  -1.0000
  19 N19          4.0810     4.0720    -0.2356 N.pl3        1    LIG   0.0000
  20 C20          3.4042     2.8951    -0.2153 C.2          1    LIG   0.0000
  21 N21          3.1902     2.5257    -1.4609 N.2          1    LIG   0.0000
  22 C22          3.7257     3.4555    -2.3060 C.ar         1    LIG   0.0000
  23 C23          3.7536     3.5011    -3.6961 C.ar         1    LIG   0.0000
  24 C24          4.3663     4.5641    -4.3514 C.ar         1    LIG   0.0000
  25 C25          4.3786     4.5818    -5.8716 C.3          1    LIG   0.0000
  26 C26          4.9511     5.5795    -3.6010 C.ar         1    LIG   0.0000
  27 C27          5.6259     6.7479    -4.3019 C.3          1    LIG   0.0000
  28 C28          4.9072     5.5070    -2.2116 C.ar         1    LIG   0.0000
  29 C29          4.2962     4.4494    -1.5414 C.ar         1    LIG   0.0000
  30 H           -1.5534    -1.0246     1.0000 H            1    LIG   0.0000
  31 H           -1.4049     0.3818     1.8165 H            1    LIG   0.0000
  32 H           -1.4049     0.3818     0.1835 H            1    LIG   0.0000
  33 H            0.6707    -0.7855     1.8165 H            1    LIG   0.0000
  34 H            0.6707    -0.7855     0.1835 H            1    LIG   0.0000
  35 H            3.2830     2.6787     4.2378 H            1    LIG   0.0000
  36 H            4.4371     4.0290     4.2207 H            1    LIG   0.0000
  37 H            5.3790     5.0957     3.4198 H            1    LIG   0.0000
  38 H            4.5445     7.3167     2.8305 H            1    LIG   0.0000
  39 H            2.9811     9.0599     3.3392 H            1    LIG   0.0000
  40 H            1.0156     8.5684     4.6052 H            1    LIG   0.0000
  41 H            0.6005     6.3434     5.3679 H            1    LIG   0.0000
  42 H            2.1603     4.5946     4.8651 H            1    LIG   0.0000
  43 H            3.3311     2.7662    -4.2267 H            1    LIG   0.0000
  44 H            3.9102     3.7691    -6.2182 H            1    LIG   0.0000
  45 H            3.9095     5.4020    -6.1992 H            1    LIG   0.0000
  46 H            5.3240     4.5860    -6.1974 H            1    LIG   0.0000
  47 H            5.9902     7.3810    -3.6189 H            1    LIG   0.0000
  48 H            6.3730     6.4077    -4.8730 H            1    LIG   0.0000
  49 H            4.9584     7.2236    -4.8748 H            1    LIG   0.0000
  50 H            5.3285     6.2391    -1.6763 H            1    LIG   0.0000
@<TRIPOS>BOND
   1        1        2 1
   2        2        3 1
   3        3        4 1
   4        4        5 2
   5        4        6 1
   6        6        7 2
   7        7        8 1
   8        7        9 1
   9        9       10 1
  10       10       11 1
  11       11       12 ar
  12       12       13 ar
  13       13       14 ar
  14       14       15 ar
  15       15       16 ar
  16       16       11 ar
  17        9       17 2
  18       17       18 1
  19       17       19 1
  20       19       20 1
  21       20        6 1
  22       20       21 2
  23       21       22 1
  24       22       23 ar
  25       23       24 ar
  26       24       25 1
  27       24       26 ar
  28       26       27 1
  29       26       28 ar
  30       28       29 ar
  31       29       22 ar
  32       29       19 1
  33        1       30 1
  34        1       31 1
  35        1       32 1
  36        2       33 1
  37        2       34 1
  38        8       35 1
  39       10       36 1
  40       10       37 1
  41       12       38 1
  42       13       39 1
  43       14       40 1
  44       15       41 1
  45       16       42 1
  46       23       43 1
  47       25       44 1
  48       25       45 1
  49       25       46 1
  50       27       47 1
  51       27       48 1
  52       27       49 1
  53       28       50 1

@<TRIPOS>MOLECULE

  50   53
SMALL
USER_CHARGES
@<TRIPOS>ATOM
   1 C1          -1.1229    -0.1220     1.0000 C.3          1    LIG   0.0000
   2 C2           0.3887    -0.2817     1.0000 C.3          1    LIG   0.0000
   3 O3           1.0000     1.0000     1.0000 O.3          1    LIG   0.0000
   4 C4           2.3100     1.0000     1.0000 C.2          1    LIG   0.0000
   5 O5           2.9100    -0.0392     1.0000 O.2          1    LIG   0.0000
   6 C6           3.0355     2.2566     1.0000 C.2          1    LIG   0.0000
   7 C7           3.3668     2.8276     2.2016 C.2          1    LIG   0.0000
   8 O8           3.0311     2.2445     3.3729 O.3          1    LIG   0.0000
   9 C9           4.0776     4.0583     2.1723 C.2          1    LIG   0.0000
  10 C10          4.4581     4.7126     3.4912 C.3          1    LIG   0.0000
  11 C11          3.1996     5.0129     4.2895 C.ar         1    LIG   0.0000
  12 C12          2.5599     6.2378     4.1309 C.ar         1    LIG   0.0000
  13 C13          1.4095     6.5044     4.8658 C.ar         1    LIG   0.0000
  14 C14          0.9101     5.5510     5.7478 C.ar         1    LIG   0.0000
  15 C15          1.5562     4.3285     5.9000 C.ar         1    LIG   0.0000
  16 C16          2.7078     4.0540     5.1692 C.ar         1    LIG   0.0000
  17 C17          4.4106     4.6390     0.9738 C.2          1    LIG   0.0000
  18 O18          5.0860     5.8078     1.0102 O.3          1    LIG  -1.0000
  19 N19          4.0810     4.0720    -0.2356 N.pl3        1    LIG   0.0000
  20 C20          3.4042     2.8951    -0.2153 C.2          1    LIG   0.0000
  21 N21          3.1902     2.5257    -1.4609 N.2          1    LIG   0.0000
  22 C22          3.7257     3.4555    -2.3060 C.ar         1    LIG   0.0000
  23 C23          3.7536     3.5011    -3.6961 C.ar         1    LIG   0.0000
  24 C24          4.3663     4.5641    -4.3514 C.ar         1    LIG   0.0000
  25 C25          4.3786     4.5818    -5.8716 C.3          1    LIG   0.0000
  26 C26          4.9511     5.5795    -3.6010 C.ar         1    LIG   0.0000
  27 C27          5.6259     6.7479    -4.3019 C.3          1    LIG   0.0000
  28 C28          4.9072     5.5070    -2.2116 C.ar         1    LIG   0.0000
  29 C29          4.2962     4.4494    -1.5414 C.ar         1    LIG   0.0000
  30 H           -1.5534    -1.0246     1.0000 H            1    LIG   0.0000
  31 H           -1.4049     0.3818     1.8165 H            1    LIG   0.0000
  32 H           -1.4049     0.3818     0.1835 H            1    LIG   0.0000
  33 H            0.6707    -0.7855     1.8165 H            1    LIG   0.0000
  34 H            0.6707    -0.7855     0.1835 H            1    LIG   0.0000
  35 H            3.2830     2.6787     4.2378 H            1    LIG   0.0000
  36 H            5.0444     4.0935     4.0136 H            1    LIG   0.0000
  37 H            4.9497     5.5646     3.3110 H            1    LIG   0.0000
  38 H            2.9231     6.9192     3.4954 H            1    LIG   0.0000
  39 H            0.9411     7.3817     4.7602 H            1    LIG   0.0000
  40 H            0.0828     5.7456     6.2748 H            1    LIG   0.0000
  41 H            1.1927     3.6467     6.5349 H            1    LIG   0.0000
  42 H            3.1768     3.1772     5.2751 H            1    LIG   0.0000
  43 H            3.3311     2.7662    -4.2267 H            1    LIG   0.0000
  44 H            3.9102     3.7691    -6.2182 H            1    LIG   0.0000
  45 H            3.9095     5.4020    -6.1992 H            1    LIG   0.0000
  46 H            5.3240     4.5860    -6.1974 H            1    LIG   0.0000
  47 H            5.9902     7.3810    -3.6189 H            1    LIG   0.0000
  48 H            6.3730     6.4077    -4.8730 H            1    LIG   0.0000
  49 H            4.9584     7.2236    -4.8748 H            1    LIG   0.0000
  50 H            5.3285     6.2391    -1.6763 H            1    LIG   0.0000
@<TRIPOS>BOND
   1        1        2 1
   2        2        3 1
   3        3        4 1
   4        4        5 2
   5        4        6 1
   6        6        7 2
   7        7        8 1
   8        7        9 1
   9        9       10 1
  10       10       11 1
  11       11       12 ar
  12       12       13 ar
  13       13       14 ar
  14       14       15 ar
  15       15       16 ar
  16       16       11 ar
  17        9       17 2
  18       17       18 1
  19       17       19 1
  20       19       20 1
  21       20        6 1
  22       20       21 2
  23       21       22 1
  24       22       23 ar
  25       23       24 ar
  26       24       25 1
  27       24       26 ar
  28       26       27 1
  29       26       28 ar
  30       28       29 ar
  31       29       22 ar
  32       29       19 1
  33        1       30 1
  34        1       31 1
  35        1       32 1
  36        2       33 1
  37        2       34 1
  38        8       35 1
  39       10       36 1
  40       10       37 1
  41       12       38 1
  42       13       39 1
  43       14       40 1
  44       15       41 1
  45       16       42 1
  46       23       43 1
  47       25       44 1
  48       25       45 1
  49       25       46 1
  50       27       47 1
  51       27       48 1
  52       27       49 1
  53       28       50 1

@<TRIPOS>MOLECULE

  50   53
SMALL
USER_CHARGES
@<TRIPOS>ATOM
   1 C1           0.1705    -0.7390    -0.4331 C.3          1    LIG   0.0000
   2 C2           0.3887    -0.2817     1.0000 C.3          1    LIG   0.0000
   3 O3           1.0000     1.0000     1.0000 O.3          1    LIG   0.0000
   4 C4           2.3100     1.0000     1.0000 C.2          1    LIG   0.0000
   5 O5           2.9100     0.0234     1.3554 O.2          1    LIG   0.0000
   6 C6           3.0355     2.1808     0.5702 C.2          1    LIG   0.0000
   7 C7           4.2661     2.0235    -0.0132 C.2          1    LIG   0.0000
   8 O8           4.8079     0.7991    -0.1915 O.3          1    LIG   0.0000
   9 C9           4.9547     3.1970    -0.4249 C.2          1    LIG   0.0000
  10 C10          6.3213     3.0506    -1.0756 C.3          1    LIG   0.0000
  11 C11          7.4049     3.3344    -0.0477 C.ar         1    LIG   0.0000
  12 C12          7.8765     4.6329     0.1145 C.ar         1    LIG   0.0000
  13 C13          8.8685     4.8834     1.0567 C.ar         1    LIG   0.0000
  14 C14          9.3784     3.8412     1.8249 C.ar         1    LIG   0.0000
  15 C15          8.9007     2.5456     1.6562 C.ar         1    LIG   0.0000
  16 C16          7.9090     2.2863     0.7155 C.ar         1    LIG   0.0000
  17 C17          4.3914     4.4345    -0.2358 C.2          1    LIG   0.0000
  18 O18          5.0934     5.5120    -0.6479 O.3          1    LIG  -1.0000
  19 N19          3.1572     4.5999     0.3493 N.pl3        1    LIG   0.0000
  20 C20          2.4927     3.4832     0.7428 C.2          1    LIG   0.0000
  21 N21          1.3452     3.8556     1.2706 N.2          1    LIG   0.0000
  22 C22          1.2485     5.2173     1.2257 C.ar         1    LIG   0.0000
  23 C23          0.2320     6.0640     1.6559 C.ar         1    LIG   0.0000
  24 C24          0.3543     7.4413     1.5041 C.ar         1    LIG   0.0000
  25 C25         -0.7758     8.3372     1.9853 C.3          1    LIG   0.0000
  26 C26          1.5036     7.9613     0.9168 C.ar         1    LIG   0.0000
  27 C27          1.6525     9.4644     0.7424 C.3          1    LIG   0.0000
  28 C28          2.5040     7.0895     0.4964 C.ar         1    LIG   0.0000
  29 C29          2.3961     5.7082     0.6428 C.ar         1    LIG   0.0000
  30 H           -0.2600    -1.6416    -0.4331 H            1    LIG   0.0000
  31 H           -0.4229    -0.0866    -0.9045 H            1    LIG   0.0000
  32 H            1.0510    -0.7896    -0.9045 H            1    LIG   0.0000
  33 H           -0.4918    -0.2310     1.4714 H            1    LIG   0.0000
  34 H            0.9821    -0.9340     1.4714 H            1    LIG   0.0000
  35 H            5.7071     0.7077    -0.6194 H            1    LIG   0.0000
  36 H            6.4271     2.1189    -1.4229 H            1    LIG   0.0000
  37 H            6.4015     3.6995    -1.8322 H            1    LIG   0.0000
  38 H            7.5063     5.3781    -0.4402 H            1    LIG   0.0000
  39 H            9.2155     5.8129     1.1820 H            1    LIG   0.0000
  40 H           10.0915     4.0244     2.5015 H            1    LIG   0.0000
  41 H            9.2702     1.8004     2.2112 H            1    LIG   0.0000
  42 H            7.5623     1.3568     0.5895 H            1    LIG   0.0000
  43 H           -0.5904     5.6807     2.0763 H            1    LIG   0.0000
  44 H           -1.5051     7.7741     2.3740 H            1    LIG   0.0000
  45 H           -0.4302     8.9637     2.6839 H            1    LIG   0.0000
  46 H           -1.1356     8.8631     1.2146 H            1    LIG   0.0000
  47 H            2.5304     9.6641     0.3073 H            1    LIG   0.0000
  48 H            0.9098     9.8085     0.1680 H            1    LIG   0.0000
  49 H            1.6152     9.9090     1.6373 H            1    LIG   0.0000
  50 H            3.3284     7.4675     0.0750 H            1    LIG   0.0000
@<TRIPOS>BOND
   1        1        2 1
   2        2        3 1
   3        3        4 1
   4        4        5 2
   5        4        6 1
   6        6        7 2
   7        7        8 1
   8        7        9 1
   9        9       10 1
  10       10       11 1
  11       11       12 ar
  12       12       13 ar
  13       13       14 ar
  14       14       15 ar
  15       15       16 ar
  16       16       11 ar
  17        9       17 2
  18       17       18 1
  19       17       19 1
  20       19       20 1
  21       20        6 1
  22       20       21 2
  23       21       22 1
  24       22       23 ar
  25       23       24 ar
  26       24       25 1
  27       24       26 ar
  28       26       27 1
  29       26       28 ar
  30       28       29 ar
  31       29       22 ar
  32       29       19 1
  33        1       30 1
  34        1       31 1
  35        1       32 1
  36        2       33 1
  37        2       34 1
  38        8       35 1
  39       10       36 1
  40       10       37 1
  41       12       38 1
  42       13       39 1
  43       14       40 1
  44       15       41 1
  45       16       42 1
  46       23       43 1
  47       25       44 1
  48       25       45 1
  49       25       46 1
  50       27       47 1
  51       27       48 1
  52       27       49 1
  53       28       50 1

