@<TRIPOS>MOLECULE
*****
 50 53 0 0 0
SMALL
USER_CHARGES

@<TRIPOS>ATOM
      1 C1         -1.1229   -0.1220    1.0000 C.3     1  LIG1        0.0000
      2 C2          0.3887   -0.2817    1.0000 C.3     1  LIG1        0.0000
      3 O3          1.0000    1.0000    1.0000 O.3     1  LIG1        0.0000
      4 C4          2.3100    1.0000    1.0000 C.2     1  LIG1        0.0000
      5 O5          2.9100   -0.0392    1.0000 O.2     1  LIG1        0.0000
      6 C6          3.0355    2.2566    1.0000 C.2     1  LIG1        0.0000
      7 C7          4.4061    2.2275    0.9986 C.2     1  LIG1        0.0000
      8 O8          5.0842    1.0592    0.9978 O.2     1  LIG1        0.0000
      9 C9          5.0914    3.4730    0.9984 C.2     1  LIG1        0.0000
     10 C10         6.6121    3.4690    0.9960 C.3     1  LIG1        0.0000
     11 C11         7.1216    3.7155    2.4070 C.3     1  LIG1        0.0000
     12 C12         7.3551    5.0177    2.8366 C.3     1  LIG1        0.0000
     13 C13         7.8219    5.2341    4.1288 C.3     1  LIG1        0.0000
     14 C14         8.0502    4.1545    4.9766 C.3     1  LIG1        0.0000
     15 C15         7.8138    2.8555    4.5387 C.3     1  LIG1        0.0000
     16 C16         7.3474    2.6303    3.2474 C.3     1  LIG1        0.0000
     17 C17         4.3882    4.6519    1.0003 C.2     1  LIG1        0.0000
     18 O18         5.0946    5.8028    0.9998 O.2     1  LIG1       -1.0000
     19 N19         3.0129    4.6887    1.0022 N.pl3   1  LIG1        0.0000
     20 C20         2.3517    3.5028    1.0000 C.2     1  LIG1        0.0000
     21 N21         1.0595    3.7558    1.0005 N.2     1  LIG1        0.0000
     22 C22         0.8642    5.1077    1.0017 C.3     1  LIG1        0.0000
     23 C23        -0.3130    5.8489    1.0004 C.3     1  LIG1        0.0000
     24 C24        -0.2671    7.2392    1.0012 C.3     1  LIG1        0.0000
     25 C25        -1.5729    8.0179    0.9995 C.3     1  LIG1        0.0000
     26 C26         0.9687    7.8788    1.0025 C.3     1  LIG1        0.0000
     27 C27         1.0363    9.3977    1.0023 C.3     1  LIG1        0.0000
     28 C28         2.1295    7.1107    1.0043 C.3     1  LIG1        0.0000
     29 C29         2.0993    5.7178    1.0046 C.3     1  LIG1        0.0000
     30 H          -1.5534   -1.0246    1.0000 H       1  LIG1        0.0000
     31 H          -1.4049    0.3818    1.8165 H       1  LIG1        0.0000
     32 H          -1.4049    0.3818    0.1835 H       1  LIG1        0.0000
     33 H           0.6707   -0.7855    1.8165 H       1  LIG1        0.0000
     34 H           0.6707   -0.7855    0.1835 H       1  LIG1        0.0000
     35 H           6.0842    1.0615    0.9968 H       1  LIG1        0.0000
     36 H           6.9426    2.5824    0.6724 H       1  LIG1        0.0000
     37 H           6.9464    4.1908    0.3900 H       1  LIG1        0.0000
     38 H           7.1891    5.7898    2.2232 H       1  LIG1        0.0000
     39 H           7.9936    6.1659    4.4488 H       1  LIG1        0.0000
     40 H           8.3858    4.3132    5.9052 H       1  LIG1        0.0000
     41 H           7.9791    2.0833    5.1522 H       1  LIG1        0.0000
     42 H           7.1764    1.6985    2.9270 H       1  LIG1        0.0000
     43 H          -1.1963    5.3802    0.9988 H       1  LIG1        0.0000
     44 H          -2.3421    7.3788    0.9987 H       1  LIG1        0.0000
     45 H          -1.6187    8.5937    1.8158 H       1  LIG1        0.0000
     46 H          -1.6168    8.5933    0.1828 H       1  LIG1        0.0000
     47 H           1.9930    9.6888    1.0033 H       1  LIG1        0.0000
     48 H           0.5812    9.7515    0.1852 H       1  LIG1        0.0000
     49 H           0.5793    9.7519    1.8182 H       1  LIG1        0.0000
     50 H           3.0155    7.5745    1.0054 H       1  LIG1        0.0000
@<TRIPOS>UNITY_ATOM_ATTR
18 1
charge -1
@<TRIPOS>BOND
     1     1     2    1
     2     2     3    1
     3     3     4    1
     4     4     5    2
     5     4     6    1
     6     6     7    2
     7     7     8    1
     8     7     9    1
     9     9    10    1
    10    10    11    1
    11    11    12   ar
    12    12    13   ar
    13    13    14   ar
    14    14    15   ar
    15    15    16   ar
    16    16    11   ar
    17     9    17    2
    18    17    18    1
    19    17    19    1
    20    19    20    1
    21    20     6    1
    22    20    21    2
    23    21    22    1
    24    22    23   ar
    25    23    24   ar
    26    24    25    1
    27    24    26   ar
    28    26    27    1
    29    26    28   ar
    30    28    29   ar
    31    29    22   ar
    32    29    19    1
    33     1    30    1
    34     1    31    1
    35     1    32    1
    36     2    33    1
    37     2    34    1
    38     8    35    1
    39    10    36    1
    40    10    37    1
    41    12    38    1
    42    13    39    1
    43    14    40    1
    44    15    41    1
    45    16    42    1
    46    23    43    1
    47    25    44    1
    48    25    45    1
    49    25    46    1
    50    27    47    1
    51    27    48    1
    52    27    49    1
    53    28    50    1
