@<TRIPOS>MOLECULE
*****
 50 53 0 0 0
SMALL
USER_CHARGES

@<TRIPOS>ATOM
      1 C1          0.1705   -0.7390   -0.4331 C.3     1  LIG1        0.0000
      2 C2          0.3887   -0.2817    1.0000 C.3     1  LIG1        0.0000
      3 O3          1.0000    1.0000    1.0000 O.3     1  LIG1        0.0000
      4 C4          2.3100    1.0000    1.0000 C.2     1  LIG1        0.0000
      5 O5          2.9100    0.0234    1.3554 O.2     1  LIG1        0.0000
      6 C6          3.0355    2.1808    0.5702 C.2     1  LIG1        0.0000
      7 C7          4.2661    2.0235   -0.0132 C.2     1  LIG1        0.0000
      8 O8          4.8079    0.7991   -0.1915 O.2     1  LIG1        0.0000
      9 C9          4.9547    3.1970   -0.4249 C.2     1  LIG1        0.0000
     10 C10         6.3213    3.0506   -1.0756 C.3     1  LIG1        0.0000
     11 C11         7.4049    3.3344   -0.0477 C.3     1  LIG1        0.0000
     12 C12         7.8765    4.6329    0.1145 C.3     1  LIG1        0.0000
     13 C13         8.8685    4.8834    1.0567 C.3     1  LIG1        0.0000
     14 C14         9.3784    3.8412    1.8249 C.3     1  LIG1        0.0000
     15 C15         8.9007    2.5456    1.6562 C.3     1  LIG1        0.0000
     16 C16         7.9090    2.2863    0.7155 C.3     1  LIG1        0.0000
     17 C17         4.3914    4.4345   -0.2358 C.2     1  LIG1        0.0000
     18 O18         5.0934    5.5120   -0.6479 O.2     1  LIG1       -1.0000
     19 N19         3.1572    4.5999    0.3493 N.pl3   1  LIG1        0.0000
     20 C20         2.4927    3.4832    0.7428 C.2     1  LIG1        0.0000
     21 N21         1.3452    3.8556    1.2706 N.2     1  LIG1        0.0000
     22 C22         1.2485    5.2173    1.2257 C.3     1  LIG1        0.0000
     23 C23         0.2320    6.0640    1.6559 C.3     1  LIG1        0.0000
     24 C24         0.3543    7.4413    1.5041 C.3     1  LIG1        0.0000
     25 C25        -0.7758    8.3372    1.9853 C.3     1  LIG1        0.0000
     26 C26         1.5036    7.9613    0.9168 C.3     1  LIG1        0.0000
     27 C27         1.6525    9.4644    0.7424 C.3     1  LIG1        0.0000
     28 C28         2.5040    7.0895    0.4964 C.3     1  LIG1        0.0000
     29 C29         2.3961    5.7082    0.6428 C.3     1  LIG1        0.0000
     30 H          -0.2600   -1.6416   -0.4331 H       1  LIG1        0.0000
     31 H          -0.4229   -0.0866   -0.9045 H       1  LIG1        0.0000
     32 H           1.0510   -0.7896   -0.9045 H       1  LIG1        0.0000
     33 H          -0.4918   -0.2310    1.4714 H       1  LIG1        0.0000
     34 H           0.9821   -0.9340    1.4714 H       1  LIG1        0.0000
     35 H           5.7071    0.7077   -0.6194 H       1  LIG1        0.0000
     36 H           6.4271    2.1189   -1.4229 H       1  LIG1        0.0000
     37 H           6.4015    3.6995   -1.8322 H       1  LIG1        0.0000
     38 H           7.5063    5.3781   -0.4402 H       1  LIG1        0.0000
     39 H           9.2155    5.8129    1.1820 H       1  LIG1        0.0000
     40 H          10.0915    4.0244    2.5015 H       1  LIG1        0.0000
     41 H           9.2702    1.8004    2.2112 H       1  LIG1        0.0000
     42 H           7.5623    1.3568    0.5895 H       1  LIG1        0.0000
     43 H          -0.5904    5.6807    2.0763 H       1  LIG1        0.0000
     44 H          -1.5051    7.7741    2.3740 H       1  LIG1        0.0000
     45 H          -0.4302    8.9637    2.6839 H       1  LIG1        0.0000
     46 H          -1.1356    8.8631    1.2146 H       1  LIG1        0.0000
     47 H           2.5304    9.6641    0.3073 H       1  LIG1        0.0000
     48 H           0.9098    9.8085    0.1680 H       1  LIG1        0.0000
     49 H           1.6152    9.9090    1.6373 H       1  LIG1        0.0000
     50 H           3.3284    7.4675    0.0750 H       1  LIG1        0.0000
@<TRIPOS>UNITY_ATOM_ATTR
18 1
charge -1
@<TRIPOS>BOND
     1     1     2    1
     2     2     3    1
     3     3     4    1
     4     4     5    2
     5     4     6    1
     6     6     7    2
     7     7     8    1
     8     7     9    1
     9     9    10    1
    10    10    11    1
    11    11    12   ar
    12    12    13   ar
    13    13    14   ar
    14    14    15   ar
    15    15    16   ar
    16    16    11   ar
    17     9    17    2
    18    17    18    1
    19    17    19    1
    20    19    20    1
    21    20     6    1
    22    20    21    2
    23    21    22    1
    24    22    23   ar
    25    23    24   ar
    26    24    25    1
    27    24    26   ar
    28    26    27    1
    29    26    28   ar
    30    28    29   ar
    31    29    22   ar
    32    29    19    1
    33     1    30    1
    34     1    31    1
    35     1    32    1
    36     2    33    1
    37     2    34    1
    38     8    35    1
    39    10    36    1
    40    10    37    1
    41    12    38    1
    42    13    39    1
    43    14    40    1
    44    15    41    1
    45    16    42    1
    46    23    43    1
    47    25    44    1
    48    25    45    1
    49    25    46    1
    50    27    47    1
    51    27    48    1
    52    27    49    1
    53    28    50    1
