@<TRIPOS>MOLECULE
*****
 50 53 0 0 0
SMALL
USER_CHARGES

@<TRIPOS>ATOM
      1 C1         -1.1229   -0.1220    1.0000 C.3     1  LIG1        0.0000
      2 C2          0.3887   -0.2817    1.0000 C.3     1  LIG1        0.0000
      3 O3          1.0000    1.0000    1.0000 O.3     1  LIG1        0.0000
      4 C4          2.3100    1.0000    1.0000 C.2     1  LIG1        0.0000
      5 O5          2.9100   -0.0392    1.0000 O.2     1  LIG1        0.0000
      6 C6          3.0355    2.2566    1.0000 C.2     1  LIG1        0.0000
      7 C7          2.4650    3.3482    1.6020 C.2     1  LIG1        0.0000
      8 O8          1.2504    3.2726    2.1884 O.2     1  LIG1        0.0000
      9 C9          3.1976    4.5663    1.5876 C.2     1  LIG1        0.0000
     10 C10         2.5879    5.7923    2.2490 C.3     1  LIG1        0.0000
     11 C11         3.1985    5.9802    3.6286 C.3     1  LIG1        0.0000
     12 C12         2.6057    5.3747    4.7317 C.3     1  LIG1        0.0000
     13 C13         3.1704    5.5524    5.9903 C.3     1  LIG1        0.0000
     14 C14         4.3162    6.3286    6.1360 C.3     1  LIG1        0.0000
     15 C15         4.9025    6.9302    5.0273 C.3     1  LIG1        0.0000
     16 C16         4.3436    6.7581    3.7649 C.3     1  LIG1        0.0000
     17 C17         4.4303    4.6276    0.9866 C.2     1  LIG1        0.0000
     18 O18         5.0783    5.8122    1.0053 O.2     1  LIG1       -1.0000
     19 N19         5.0087    3.5364    0.3803 N.pl3   1  LIG1        0.0000
     20 C20         4.3156    2.3689    0.3923 C.2     1  LIG1        0.0000
     21 N21         5.0361    1.4599   -0.2309 N.2     1  LIG1        0.0000
     22 C22         6.2059    2.0236   -0.6545 C.3     1  LIG1        0.0000
     23 C23         7.2758    1.4675   -1.3484 C.3     1  LIG1        0.0000
     24 C24         8.3804    2.2465   -1.6768 C.3     1  LIG1        0.0000
     25 C25         9.5321    1.6064   -2.4354 C.3     1  LIG1        0.0000
     26 C26         8.4030    3.5866   -1.3027 C.3     1  LIG1        0.0000
     27 C27         9.6033    4.4516   -1.6529 C.3     1  LIG1        0.0000
     28 C28         7.3178    4.1153   -0.6095 C.3     1  LIG1        0.0000
     29 C29         6.2043    3.3478   -0.2747 C.3     1  LIG1        0.0000
     30 H          -1.5534   -1.0246    1.0000 H       1  LIG1        0.0000
     31 H          -1.4049    0.3818    1.8165 H       1  LIG1        0.0000
     32 H          -1.4049    0.3818    0.1835 H       1  LIG1        0.0000
     33 H           0.6707   -0.7855    1.8165 H       1  LIG1        0.0000
     34 H           0.6707   -0.7855    0.1835 H       1  LIG1        0.0000
     35 H           0.8532    4.0816    2.6217 H       1  LIG1        0.0000
     36 H           2.7737    6.6000    1.6895 H       1  LIG1        0.0000
     37 H           1.5996    5.6673    2.3361 H       1  LIG1        0.0000
     38 H           1.7825    4.8178    4.6211 H       1  LIG1        0.0000
     39 H           2.7530    5.1223    6.7907 H       1  LIG1        0.0000
     40 H           4.7200    6.4546    7.0422 H       1  LIG1        0.0000
     41 H           5.7261    7.4866    5.1376 H       1  LIG1        0.0000
     42 H           4.7604    7.1888    2.9644 H       1  LIG1        0.0000
     43 H           7.2506    0.5033   -1.6123 H       1  LIG1        0.0000
     44 H           9.3233    0.6438   -2.6080 H       1  LIG1        0.0000
     45 H           9.6621    2.0807   -3.3061 H       1  LIG1        0.0000
     46 H          10.3682    1.6738   -1.8910 H       1  LIG1        0.0000
     47 H           9.4558    5.3801   -1.3123 H       1  LIG1        0.0000
     48 H          10.4249    4.0683   -1.2309 H       1  LIG1        0.0000
     49 H           9.7188    4.4752   -2.6460 H       1  LIG1        0.0000
     50 H           7.3381    5.0789   -0.3428 H       1  LIG1        0.0000
@<TRIPOS>UNITY_ATOM_ATTR
18 1
charge -1
@<TRIPOS>BOND
     1     1     2    1
     2     2     3    1
     3     3     4    1
     4     4     5    2
     5     4     6    1
     6     6     7    2
     7     7     8    1
     8     7     9    1
     9     9    10    1
    10    10    11    1
    11    11    12   ar
    12    12    13   ar
    13    13    14   ar
    14    14    15   ar
    15    15    16   ar
    16    16    11   ar
    17     9    17    2
    18    17    18    1
    19    17    19    1
    20    19    20    1
    21    20     6    1
    22    20    21    2
    23    21    22    1
    24    22    23   ar
    25    23    24   ar
    26    24    25    1
    27    24    26   ar
    28    26    27    1
    29    26    28   ar
    30    28    29   ar
    31    29    22   ar
    32    29    19    1
    33     1    30    1
    34     1    31    1
    35     1    32    1
    36     2    33    1
    37     2    34    1
    38     8    35    1
    39    10    36    1
    40    10    37    1
    41    12    38    1
    42    13    39    1
    43    14    40    1
    44    15    41    1
    45    16    42    1
    46    23    43    1
    47    25    44    1
    48    25    45    1
    49    25    46    1
    50    27    47    1
    51    27    48    1
    52    27    49    1
    53    28    50    1
