@<TRIPOS>MOLECULE
*****
 50 53 0 0 0
SMALL
USER_CHARGES

@<TRIPOS>ATOM
      1 C1          0.1705   -0.7390    2.4331 C.3     1  LIG1        0.0000
      2 C2          0.3887   -0.2817    1.0000 C.3     1  LIG1        0.0000
      3 O3          1.0000    1.0000    1.0000 O.3     1  LIG1        0.0000
      4 C4          2.3100    1.0000    1.0000 C.2     1  LIG1        0.0000
      5 O5          2.9100   -0.0392    1.0000 O.2     1  LIG1        0.0000
      6 C6          3.0355    2.2566    1.0000 C.2     1  LIG1        0.0000
      7 C7          3.3643    2.8290   -0.2016 C.2     1  LIG1        0.0000
      8 O8          3.0272    2.2468   -1.3729 O.2     1  LIG1        0.0000
      9 C9          4.0748    4.0599   -0.1723 C.2     1  LIG1        0.0000
     10 C10         4.4512    4.7166   -1.4912 C.3     1  LIG1        0.0000
     11 C11         5.9073    4.4166   -1.8092 C.3     1  LIG1        0.0000
     12 C12         6.9016    5.2796   -1.3603 C.3     1  LIG1        0.0000
     13 C13         8.2311    4.9979   -1.6564 C.3     1  LIG1        0.0000
     14 C14         8.5549    3.8631   -2.3939 C.3     1  LIG1        0.0000
     15 C15         7.5540    3.0055   -2.8386 C.3     1  LIG1        0.0000
     16 C16         6.2216    3.2802   -2.5474 C.3     1  LIG1        0.0000
     17 C17         4.4112    4.6386    1.0262 C.2     1  LIG1        0.0000
     18 O18         5.0856    5.8080    0.9898 O.2     1  LIG1       -1.0000
     19 N19         4.0849    4.0697    2.2356 N.pl3   1  LIG1        0.0000
     20 C20         3.4042    2.8951    2.2153 C.2     1  LIG1        0.0000
     21 N21         3.1911    2.5251    3.4609 N.2     1  LIG1        0.0000
     22 C22         3.7287    3.4538    4.3060 C.3     1  LIG1        0.0000
     23 C23         3.7542    3.5007    5.6961 C.3     1  LIG1        0.0000
     24 C24         4.3684    4.5629    6.3514 C.3     1  LIG1        0.0000
     25 C25         4.3777    4.5823    7.8716 C.3     1  LIG1        0.0000
     26 C26         4.9554    5.5770    5.6010 C.3     1  LIG1        0.0000
     27 C27         5.6299    6.7456    6.3019 C.3     1  LIG1        0.0000
     28 C28         4.9146    5.5027    4.2116 C.3     1  LIG1        0.0000
     29 C29         4.3042    4.4448    3.5414 C.3     1  LIG1        0.0000
     30 H          -0.2600   -1.6416    2.4331 H       1  LIG1        0.0000
     31 H           1.0510   -0.7896    2.9045 H       1  LIG1        0.0000
     32 H          -0.4229   -0.0866    2.9045 H       1  LIG1        0.0000
     33 H           0.9821   -0.9340    0.5286 H       1  LIG1        0.0000
     34 H          -0.4918   -0.2310    0.5286 H       1  LIG1        0.0000
     35 H           3.2773    2.6820   -2.2378 H       1  LIG1        0.0000
     36 H           3.8697    4.3566   -2.2207 H       1  LIG1        0.0000
     37 H           4.3225    5.7057   -1.4198 H       1  LIG1        0.0000
     38 H           6.6631    6.0935   -0.8305 H       1  LIG1        0.0000
     39 H           8.9545    5.6111   -1.3392 H       1  LIG1        0.0000
     40 H           9.5116    3.6632   -2.6052 H       1  LIG1        0.0000
     41 H           7.7923    2.1912   -3.3679 H       1  LIG1        0.0000
     42 H           5.4979    2.6676   -2.8651 H       1  LIG1        0.0000
     43 H           3.3290    2.7674    6.2267 H       1  LIG1        0.0000
     44 H           3.9080    3.7704    8.2182 H       1  LIG1        0.0000
     45 H           5.3225    4.5862    8.1992 H       1  LIG1        0.0000
     46 H           3.9086    5.4032    8.1974 H       1  LIG1        0.0000
     47 H           5.9960    7.3777    5.6189 H       1  LIG1        0.0000
     48 H           4.9617    7.2224    6.8730 H       1  LIG1        0.0000
     49 H           6.3756    6.4054    6.8748 H       1  LIG1        0.0000
     50 H           5.3379    6.2336    3.6763 H       1  LIG1        0.0000
@<TRIPOS>UNITY_ATOM_ATTR
18 1
charge -1
@<TRIPOS>BOND
     1     1     2    1
     2     2     3    1
     3     3     4    1
     4     4     5    2
     5     4     6    1
     6     6     7    2
     7     7     8    1
     8     7     9    1
     9     9    10    1
    10    10    11    1
    11    11    12   ar
    12    12    13   ar
    13    13    14   ar
    14    14    15   ar
    15    15    16   ar
    16    16    11   ar
    17     9    17    2
    18    17    18    1
    19    17    19    1
    20    19    20    1
    21    20     6    1
    22    20    21    2
    23    21    22    1
    24    22    23   ar
    25    23    24   ar
    26    24    25    1
    27    24    26   ar
    28    26    27    1
    29    26    28   ar
    30    28    29   ar
    31    29    22   ar
    32    29    19    1
    33     1    30    1
    34     1    31    1
    35     1    32    1
    36     2    33    1
    37     2    34    1
    38     8    35    1
    39    10    36    1
    40    10    37    1
    41    12    38    1
    42    13    39    1
    43    14    40    1
    44    15    41    1
    45    16    42    1
    46    23    43    1
    47    25    44    1
    48    25    45    1
    49    25    46    1
    50    27    47    1
    51    27    48    1
    52    27    49    1
    53    28    50    1
