@<TRIPOS>MOLECULE
*****
 50 53 0 0 0
SMALL
USER_CHARGES

@<TRIPOS>ATOM
      1 C1         -1.1229   -0.1220    1.0000 C.3     1  LIG1        0.0000
      2 C2          0.3887   -0.2817    1.0000 C.3     1  LIG1        0.0000
      3 O3          1.0000    1.0000    1.0000 O.3     1  LIG1        0.0000
      4 C4          2.3100    1.0000    1.0000 C.2     1  LIG1        0.0000
      5 O5          2.9100   -0.0392    1.0000 O.2     1  LIG1        0.0000
      6 C6          3.0355    2.2566    1.0000 C.2     1  LIG1        0.0000
      7 C7          3.3668    2.8276    2.2016 C.2     1  LIG1        0.0000
      8 O8          3.0311    2.2445    3.3729 O.2     1  LIG1        0.0000
      9 C9          4.0776    4.0583    2.1723 C.2     1  LIG1        0.0000
     10 C10         4.4581    4.7126    3.4912 C.3     1  LIG1        0.0000
     11 C11         5.9150    4.4118    3.8044 C.3     1  LIG1        0.0000
     12 C12         6.2407    3.2760    4.5384 C.3     1  LIG1        0.0000
     13 C13         7.5761    3.0088    4.8211 C.3     1  LIG1        0.0000
     14 C14         8.5696    3.8729    4.3707 C.3     1  LIG1        0.0000
     15 C15         8.2347    5.0064    3.6371 C.3     1  LIG1        0.0000
     16 C16         6.9013    5.2814    3.3506 C.3     1  LIG1        0.0000
     17 C17         4.4106    4.6390    0.9738 C.2     1  LIG1        0.0000
     18 O18         5.0860    5.8078    1.0102 O.2     1  LIG1       -1.0000
     19 N19         4.0810    4.0720   -0.2356 N.pl3   1  LIG1        0.0000
     20 C20         3.4042    2.8951   -0.2153 C.2     1  LIG1        0.0000
     21 N21         3.1902    2.5257   -1.4609 N.2     1  LIG1        0.0000
     22 C22         3.7257    3.4555   -2.3060 C.3     1  LIG1        0.0000
     23 C23         3.7536    3.5011   -3.6961 C.3     1  LIG1        0.0000
     24 C24         4.3663    4.5641   -4.3514 C.3     1  LIG1        0.0000
     25 C25         4.3786    4.5818   -5.8716 C.3     1  LIG1        0.0000
     26 C26         4.9511    5.5795   -3.6010 C.3     1  LIG1        0.0000
     27 C27         5.6259    6.7479   -4.3019 C.3     1  LIG1        0.0000
     28 C28         4.9072    5.5070   -2.2116 C.3     1  LIG1        0.0000
     29 C29         4.2962    4.4494   -1.5414 C.3     1  LIG1        0.0000
     30 H          -1.5534   -1.0246    1.0000 H       1  LIG1        0.0000
     31 H          -1.4049    0.3818    1.8165 H       1  LIG1        0.0000
     32 H          -1.4049    0.3818    0.1835 H       1  LIG1        0.0000
     33 H           0.6707   -0.7855    1.8165 H       1  LIG1        0.0000
     34 H           0.6707   -0.7855    0.1835 H       1  LIG1        0.0000
     35 H           3.2830    2.6787    4.2378 H       1  LIG1        0.0000
     36 H           4.3294    5.7019    3.4219 H       1  LIG1        0.0000
     37 H           3.8786    4.3515    4.2218 H       1  LIG1        0.0000
     38 H           5.5227    2.6584    4.8593 H       1  LIG1        0.0000
     39 H           7.8224    2.1954    5.3481 H       1  LIG1        0.0000
     40 H           9.5288    3.6782    4.5755 H       1  LIG1        0.0000
     41 H           8.9526    5.6238    3.3155 H       1  LIG1        0.0000
     42 H           6.6547    6.0951    2.8242 H       1  LIG1        0.0000
     43 H           3.3311    2.7662   -4.2267 H       1  LIG1        0.0000
     44 H           3.9102    3.7691   -6.2182 H       1  LIG1        0.0000
     45 H           3.9095    5.4020   -6.1992 H       1  LIG1        0.0000
     46 H           5.3240    4.5860   -6.1974 H       1  LIG1        0.0000
     47 H           5.9902    7.3810   -3.6189 H       1  LIG1        0.0000
     48 H           6.3730    6.4077   -4.8730 H       1  LIG1        0.0000
     49 H           4.9584    7.2236   -4.8748 H       1  LIG1        0.0000
     50 H           5.3285    6.2391   -1.6763 H       1  LIG1        0.0000
@<TRIPOS>UNITY_ATOM_ATTR
18 1
charge -1
@<TRIPOS>BOND
     1     1     2    1
     2     2     3    1
     3     3     4    1
     4     4     5    2
     5     4     6    1
     6     6     7    2
     7     7     8    1
     8     7     9    1
     9     9    10    1
    10    10    11    1
    11    11    12   ar
    12    12    13   ar
    13    13    14   ar
    14    14    15   ar
    15    15    16   ar
    16    16    11   ar
    17     9    17    2
    18    17    18    1
    19    17    19    1
    20    19    20    1
    21    20     6    1
    22    20    21    2
    23    21    22    1
    24    22    23   ar
    25    23    24   ar
    26    24    25    1
    27    24    26   ar
    28    26    27    1
    29    26    28   ar
    30    28    29   ar
    31    29    22   ar
    32    29    19    1
    33     1    30    1
    34     1    31    1
    35     1    32    1
    36     2    33    1
    37     2    34    1
    38     8    35    1
    39    10    36    1
    40    10    37    1
    41    12    38    1
    42    13    39    1
    43    14    40    1
    44    15    41    1
    45    16    42    1
    46    23    43    1
    47    25    44    1
    48    25    45    1
    49    25    46    1
    50    27    47    1
    51    27    48    1
    52    27    49    1
    53    28    50    1
