@<TRIPOS>MOLECULE
*****
 50 53 0 0 0
SMALL
USER_CHARGES

@<TRIPOS>ATOM
      1 C1         -1.1229   -0.1220    1.0000 C.3     1  LIG1        0.0000
      2 C2          0.3887   -0.2817    1.0000 C.3     1  LIG1        0.0000
      3 O3          1.0000    1.0000    1.0000 O.3     1  LIG1        0.0000
      4 C4          2.3100    1.0000    1.0000 C.2     1  LIG1        0.0000
      5 O5          2.9100   -0.0392    1.0000 O.2     1  LIG1        0.0000
      6 C6          3.0355    2.2566    1.0000 C.2     1  LIG1        0.0000
      7 C7          2.4638    3.3489    0.4004 C.2     1  LIG1        0.0000
      8 O8          1.2485    3.2737   -0.1845 O.2     1  LIG1        0.0000
      9 C9          3.1962    4.5672    0.4152 C.2     1  LIG1        0.0000
     10 C10         2.5845    5.7943   -0.2422 C.3     1  LIG1        0.0000
     11 C11         2.3381    5.5103   -1.7152 C.3     1  LIG1        0.0000
     12 C12         3.3327    5.7916   -2.6461 C.3     1  LIG1        0.0000
     13 C13         3.0985    5.5293   -3.9918 C.3     1  LIG1        0.0000
     14 C14         1.8801    4.9909   -4.3945 C.3     1  LIG1        0.0000
     15 C15         0.8912    4.7124   -3.4566 C.3     1  LIG1        0.0000
     16 C16         1.1170    4.9724   -2.1087 C.3     1  LIG1        0.0000
     17 C17         4.4306    4.6274    1.0128 C.2     1  LIG1        0.0000
     18 O18         5.0781    5.8123    0.9951 O.2     1  LIG1       -1.0000
     19 N19         5.0106    3.5353    1.6158 N.pl3   1  LIG1        0.0000
     20 C20         4.3156    2.3689    1.6077 C.2     1  LIG1        0.0000
     21 N21         5.0366    1.4596    2.2300 N.2     1  LIG1        0.0000
     22 C22         6.2074    2.0227    2.6515 C.3     1  LIG1        0.0000
     23 C23         7.2761    1.4674    3.3477 C.3     1  LIG1        0.0000
     24 C24         8.3815    2.2459    3.6747 C.3     1  LIG1        0.0000
     25 C25         9.5316    1.6067    4.4363 C.3     1  LIG1        0.0000
     26 C26         8.4051    3.5854    3.2983 C.3     1  LIG1        0.0000
     27 C27         9.6053    4.4504    3.6490 C.3     1  LIG1        0.0000
     28 C28         7.3215    4.1131    2.6021 C.3     1  LIG1        0.0000
     29 C29         6.2082    3.3455    2.2667 C.3     1  LIG1        0.0000
     30 H          -1.5534   -1.0246    1.0000 H       1  LIG1        0.0000
     31 H          -1.4049    0.3818    1.8165 H       1  LIG1        0.0000
     32 H          -1.4049    0.3818    0.1835 H       1  LIG1        0.0000
     33 H           0.6707   -0.7855    1.8165 H       1  LIG1        0.0000
     34 H           0.6707   -0.7855    0.1835 H       1  LIG1        0.0000
     35 H           0.8504    4.0832   -0.6161 H       1  LIG1        0.0000
     36 H           1.7173    6.0144    0.2045 H       1  LIG1        0.0000
     37 H           3.2115    6.5681   -0.1523 H       1  LIG1        0.0000
     38 H           4.2064    6.1782   -2.3510 H       1  LIG1        0.0000
     39 H           3.8059    5.7276   -4.6701 H       1  LIG1        0.0000
     40 H           1.7147    4.8034   -5.3627 H       1  LIG1        0.0000
     41 H           0.0176    4.3252   -3.7515 H       1  LIG1        0.0000
     42 H           0.4095    4.7749   -1.4302 H       1  LIG1        0.0000
     43 H           7.2496    0.5039    3.6144 H       1  LIG1        0.0000
     44 H           9.3222    0.6445    4.6102 H       1  LIG1        0.0000
     45 H          10.3686    1.6728    3.8931 H       1  LIG1        0.0000
     46 H           9.6605    2.0824    5.3064 H       1  LIG1        0.0000
     47 H           9.4587    5.3785    3.3065 H       1  LIG1        0.0000
     48 H           9.7193    4.4757    4.6421 H       1  LIG1        0.0000
     49 H          10.4274    4.0661    3.2288 H       1  LIG1        0.0000
     50 H           7.3428    5.0761    2.3334 H       1  LIG1        0.0000
@<TRIPOS>UNITY_ATOM_ATTR
18 1
charge -1
@<TRIPOS>BOND
     1     1     2    1
     2     2     3    1
     3     3     4    1
     4     4     5    2
     5     4     6    1
     6     6     7    2
     7     7     8    1
     8     7     9    1
     9     9    10    1
    10    10    11    1
    11    11    12   ar
    12    12    13   ar
    13    13    14   ar
    14    14    15   ar
    15    15    16   ar
    16    16    11   ar
    17     9    17    2
    18    17    18    1
    19    17    19    1
    20    19    20    1
    21    20     6    1
    22    20    21    2
    23    21    22    1
    24    22    23   ar
    25    23    24   ar
    26    24    25    1
    27    24    26   ar
    28    26    27    1
    29    26    28   ar
    30    28    29   ar
    31    29    22   ar
    32    29    19    1
    33     1    30    1
    34     1    31    1
    35     1    32    1
    36     2    33    1
    37     2    34    1
    38     8    35    1
    39    10    36    1
    40    10    37    1
    41    12    38    1
    42    13    39    1
    43    14    40    1
    44    15    41    1
    45    16    42    1
    46    23    43    1
    47    25    44    1
    48    25    45    1
    49    25    46    1
    50    27    47    1
    51    27    48    1
    52    27    49    1
    53    28    50    1
