@<TRIPOS>MOLECULE

  18   19
SMALL
USER_CHARGES
@<TRIPOS>ATOM
   1 O1           1.0000     1.0000     1.0000 O.3          1    LIG   0.0000
   2 C2           2.4197     1.0000     1.0000 C.3          1    LIG   0.0000
   3 C3           2.9179     0.5232    -0.3547 C.3          1    LIG   0.0000
   4 N4           4.1796    -0.1745    -0.0629 N.pl3        1    LIG   0.0000
   5 C5           5.3204    -0.5851    -0.6849 C.2          1    LIG   0.0000
   6 C6           6.0478    -1.2634     0.2454 C.2          1    LIG   0.0000
   7 Br7          7.7995    -2.1065    -0.0162 Br           1    LIG   0.0000
   8 C8           5.2993    -1.2360     1.4440 C.2          1    LIG   0.0000
   9 N9           4.2038    -0.5667     1.1745 N.2          1    LIG   1.0000
  10 C10          2.9593    -0.1455     1.8348 C.3          1    LIG   0.0000
  11 H            0.6667     1.7620     0.4447 H            1    LIG   0.0000
  12 H            2.8054     1.8842     1.2634 H            1    LIG   0.0000
  13 H            2.2583    -0.1009    -0.7735 H            1    LIG   0.0000
  14 H            3.0768     1.2991    -0.9652 H            1    LIG   0.0000
  15 H            5.5740    -0.4204    -1.6381 H            1    LIG   0.0000
  16 H            5.5535    -1.6445     2.3206 H            1    LIG   0.0000
  17 H            3.1461     0.1609     2.7682 H            1    LIG   0.0000
  18 H            2.3035    -0.9002     1.8567 H            1    LIG   0.0000
@<TRIPOS>BOND
   1        1        2 1
   2        2        3 1
   3        3        4 1
   4        4        5 1
   5        5        6 2
   6        6        7 1
   7        6        8 1
   8        8        9 2
   9        9        4 1
  10        9       10 1
  11       10        2 1
  12        1       11 1
  13        2       12 1
  14        3       13 1
  15        3       14 1
  16        5       15 1
  17        8       16 1
  18       10       17 1
  19       10       18 1

@<TRIPOS>MOLECULE

  18   19
SMALL
USER_CHARGES
@<TRIPOS>ATOM
   1 O1           1.0000     1.0000     1.0000 O.3          1    LIG   0.0000
   2 C2           2.4207     1.0000     1.0000 C.3          1    LIG   0.0000
   3 C3           2.9590     0.6757     2.3739 C.3          1    LIG   0.0000
   4 N4           4.2252    -0.0245     2.1024 N.pl3        1    LIG   0.0000
   5 C5           5.3784    -0.3630     2.7398 C.2          1    LIG   0.0000
   6 C6           6.1123    -1.1188     1.8763 C.2          1    LIG   0.0000
   7 Br7          7.8698    -1.9257     2.2050 Br           1    LIG   0.0000
   8 C8           5.3508    -1.2012     0.6903 C.2          1    LIG   0.0000
   9 N9           4.2498    -0.5214     0.9044 N.2          1    LIG   1.0000
  10 C10          3.0032    -0.1652     0.2133 C.3          1    LIG   0.0000
  11 H            0.6667     1.7814     1.5275 H            1    LIG   0.0000
  12 H            2.7803     1.8726     0.6696 H            1    LIG   0.0000
  13 H            3.1201     1.5113     2.8992 H            1    LIG   0.0000
  14 H            2.3257     0.0847     2.8737 H            1    LIG   0.0000
  15 H            5.6390    -0.1048     3.6701 H            1    LIG   0.0000
  16 H            5.6019    -1.6835    -0.1490 H            1    LIG   0.0000
  17 H            2.3698    -0.9390     0.2143 H            1    LIG   0.0000
  18 H            3.1925     0.1094    -0.7294 H            1    LIG   0.0000
@<TRIPOS>BOND
   1        1        2 1
   2        2        3 1
   3        3        4 1
   4        4        5 1
   5        5        6 2
   6        6        7 1
   7        6        8 1
   8        8        9 2
   9        9        4 1
  10        9       10 1
  11       10        2 1
  12        1       11 1
  13        2       12 1
  14        3       13 1
  15        3       14 1
  16        5       15 1
  17        8       16 1
  18       10       17 1
  19       10       18 1

@<TRIPOS>MOLECULE

  18   19
SMALL
USER_CHARGES
@<TRIPOS>ATOM
   1 O1           1.0000     1.0000     1.0000 O.3          1    LIG   0.0000
   2 C2           2.4222     1.0000     1.0000 C.3          1    LIG   0.0000
   3 C3           2.8605     0.0179    -0.0683 C.3          1    LIG   0.0000
   4 N4           3.9503    -0.7582     0.5413 N.pl3        1    LIG   0.0000
   5 C5           4.9491    -1.6119     0.1855 C.2          1    LIG   0.0000
   6 C6           5.5569    -2.0084     1.3342 C.2          1    LIG   0.0000
   7 Br7          7.0569    -3.2645     1.4713 Br           1    LIG   0.0000
   8 C8           4.8910    -1.3396     2.3855 C.2          1    LIG   0.0000
   9 N9           3.9394    -0.6249     1.8272 N.2          1    LIG   1.0000
  10 C10          2.8757     0.2810     2.2594 C.3          1    LIG   0.0000
  11 H            0.6667     1.4674     0.1812 H            1    LIG   0.0000
  12 H            2.8218     1.9105     0.8939 H            1    LIG   0.0000
  13 H            2.1030    -0.5829    -0.3237 H            1    LIG   0.0000
  14 H            3.1877     0.5046    -0.8783 H            1    LIG   0.0000
  15 H            5.1895    -1.8934    -0.7434 H            1    LIG   0.0000
  16 H            5.1018    -1.3983     3.3612 H            1    LIG   0.0000
  17 H            3.2247     0.9358     2.9298 H            1    LIG   0.0000
  18 H            2.1183    -0.2345     2.6600 H            1    LIG   0.0000
@<TRIPOS>BOND
   1        1        2 1
   2        2        3 1
   3        3        4 1
   4        4        5 1
   5        5        6 2
   6        6        7 1
   7        6        8 1
   8        8        9 2
   9        9        4 1
  10        9       10 1
  11       10        2 1
  12        1       11 1
  13        2       12 1
  14        3       13 1
  15        3       14 1
  16        5       15 1
  17        8       16 1
  18       10       17 1
  19       10       18 1

