@<TRIPOS>MOLECULE
*****
 18 19 0 0 0
SMALL
USER_CHARGES

@<TRIPOS>ATOM
      1 O1          1.0000    1.0000    1.0000 O.3     1  LIG1        0.0000
      2 C2          2.4197    1.0000    1.0000 C.3     1  LIG1        0.0000
      3 C3          2.9179    0.5232   -0.3547 C.3     1  LIG1        0.0000
      4 N4          4.1796   -0.1745   -0.0629 N.pl3   1  LIG1        0.0000
      5 C5          5.3204   -0.5851   -0.6849 C.2     1  LIG1        0.0000
      6 C6          6.0478   -1.2634    0.2454 C.2     1  LIG1        0.0000
      7 Br7         7.7995   -2.1065   -0.0162 Br      1  LIG1        0.0000
      8 C8          5.2993   -1.2360    1.4440 C.2     1  LIG1        0.0000
      9 N9          4.2038   -0.5667    1.1745 N.2     1  LIG1        1.0000
     10 C10         2.9593   -0.1455    1.8348 C.3     1  LIG1        0.0000
     11 H           0.6667    1.7620    0.4447 H       1  LIG1        0.0000
     12 H           2.8054    1.8842    1.2634 H       1  LIG1        0.0000
     13 H           2.2583   -0.1009   -0.7735 H       1  LIG1        0.0000
     14 H           3.0768    1.2991   -0.9652 H       1  LIG1        0.0000
     15 H           5.5740   -0.4204   -1.6381 H       1  LIG1        0.0000
     16 H           5.5535   -1.6445    2.3206 H       1  LIG1        0.0000
     17 H           3.1461    0.1609    2.7682 H       1  LIG1        0.0000
     18 H           2.3035   -0.9002    1.8567 H       1  LIG1        0.0000
@<TRIPOS>BOND
     1     1     2    1
     2     2     3    1
     3     3     4    1
     4     4     5    1
     5     5     6    2
     6     6     7    1
     7     6     8    1
     8     8     9    2
     9     9     4    1
    10     9    10    1
    11    10     2    1
    12     1    11    1
    13     2    12    1
    14     3    13    1
    15     3    14    1
    16     5    15    1
    17     8    16    1
    18    10    17    1
    19    10    18    1
