@<TRIPOS>MOLECULE
*****
 18 19 0 0 0
SMALL
USER_CHARGES

@<TRIPOS>ATOM
      1 O1          1.0000    1.0000    1.0000 O.3     1  LIG1        0.0000
      2 C2          2.4207    1.0000    1.0000 C.3     1  LIG1        0.0000
      3 C3          2.9590    0.6757    2.3739 C.3     1  LIG1        0.0000
      4 N4          4.2252   -0.0245    2.1024 N.pl3   1  LIG1        0.0000
      5 C5          5.3784   -0.3630    2.7398 C.2     1  LIG1        0.0000
      6 C6          6.1123   -1.1188    1.8763 C.2     1  LIG1        0.0000
      7 Br7         7.8698   -1.9257    2.2050 Br      1  LIG1        0.0000
      8 C8          5.3508   -1.2012    0.6903 C.2     1  LIG1        0.0000
      9 N9          4.2498   -0.5214    0.9044 N.2     1  LIG1        1.0000
     10 C10         3.0032   -0.1652    0.2133 C.3     1  LIG1        0.0000
     11 H           0.6667    1.7814    1.5275 H       1  LIG1        0.0000
     12 H           2.7803    1.8726    0.6696 H       1  LIG1        0.0000
     13 H           3.1201    1.5113    2.8992 H       1  LIG1        0.0000
     14 H           2.3257    0.0847    2.8737 H       1  LIG1        0.0000
     15 H           5.6390   -0.1048    3.6701 H       1  LIG1        0.0000
     16 H           5.6019   -1.6835   -0.1490 H       1  LIG1        0.0000
     17 H           2.3698   -0.9390    0.2143 H       1  LIG1        0.0000
     18 H           3.1925    0.1094   -0.7294 H       1  LIG1        0.0000
@<TRIPOS>BOND
     1     1     2    1
     2     2     3    1
     3     3     4    1
     4     4     5    1
     5     5     6    2
     6     6     7    1
     7     6     8    1
     8     8     9    2
     9     9     4    1
    10     9    10    1
    11    10     2    1
    12     1    11    1
    13     2    12    1
    14     3    13    1
    15     3    14    1
    16     5    15    1
    17     8    16    1
    18    10    17    1
    19    10    18    1
