@<TRIPOS>MOLECULE
*****
 18 19 0 0 0
SMALL
USER_CHARGES

@<TRIPOS>ATOM
      1 O1          1.0000    1.0000    1.0000 O.3     1  LIG1        0.0000
      2 C2          2.4222    1.0000    1.0000 C.3     1  LIG1        0.0000
      3 C3          2.8605    0.0179   -0.0683 C.3     1  LIG1        0.0000
      4 N4          3.9503   -0.7582    0.5413 N.pl3   1  LIG1        0.0000
      5 C5          4.9491   -1.6119    0.1855 C.2     1  LIG1        0.0000
      6 C6          5.5569   -2.0084    1.3342 C.2     1  LIG1        0.0000
      7 Br7         7.0569   -3.2645    1.4713 Br      1  LIG1        0.0000
      8 C8          4.8910   -1.3396    2.3855 C.2     1  LIG1        0.0000
      9 N9          3.9394   -0.6249    1.8272 N.2     1  LIG1        1.0000
     10 C10         2.8757    0.2810    2.2594 C.3     1  LIG1        0.0000
     11 H           0.6667    1.4674    0.1812 H       1  LIG1        0.0000
     12 H           2.8218    1.9105    0.8939 H       1  LIG1        0.0000
     13 H           2.1030   -0.5829   -0.3237 H       1  LIG1        0.0000
     14 H           3.1877    0.5046   -0.8783 H       1  LIG1        0.0000
     15 H           5.1895   -1.8934   -0.7434 H       1  LIG1        0.0000
     16 H           5.1018   -1.3983    3.3612 H       1  LIG1        0.0000
     17 H           3.2247    0.9358    2.9298 H       1  LIG1        0.0000
     18 H           2.1183   -0.2345    2.6600 H       1  LIG1        0.0000
@<TRIPOS>BOND
     1     1     2    1
     2     2     3    1
     3     3     4    1
     4     4     5    1
     5     5     6    2
     6     6     7    1
     7     6     8    1
     8     8     9    2
     9     9     4    1
    10     9    10    1
    11    10     2    1
    12     1    11    1
    13     2    12    1
    14     3    13    1
    15     3    14    1
    16     5    15    1
    17     8    16    1
    18    10    17    1
    19    10    18    1
