@<TRIPOS>MOLECULE

  20   21
SMALL
USER_CHARGES
@<TRIPOS>ATOM
   1 Cl1         -1.5701     2.2470     0.0290 Cl           1    LIG   0.0000
   2 C2          -0.0176     1.3766     0.0102 C.ar         1    LIG   0.0000
   3 C3           1.1694     2.1014     0.0022 C.ar         1    LIG   0.0000
   4 C4           2.3772     1.4115    -0.0127 C.ar         1    LIG   0.0000
   5 Cl5          3.9065     2.3216    -0.0233 Cl           1    LIG   0.0000
   6 C6           2.4122     0.0210    -0.0188 C.ar         1    LIG   0.0000
   7 C7           1.2105    -0.6793    -0.0107 C.ar         1    LIG   0.0000
   8 N8           1.2274    -2.0799    -0.0171 N.pl3        1    LIG   0.0000
   9 C9           2.1974    -2.8507    -0.5874 C.2          1    LIG   0.0000
  10 C10          1.8590    -4.1567    -0.3840 C.2          1    LIG   0.0000
  11 C11          0.6410    -4.1737     0.3342 C.2          1    LIG   0.0000
  12 C12          0.2744    -2.8771     0.5468 C.2          1    LIG   0.0000
  13 C13         -0.0108    -0.0141     0.0033 C.ar         1    LIG   0.0000
  14 H            1.1549     3.1013     0.0072 H            1    LIG   0.0000
  15 H            3.2854    -0.4663    -0.0288 H            1    LIG   0.0000
  16 H            3.0094    -2.5188    -1.0676 H            1    LIG   0.0000
  17 H            2.3777    -4.9560    -0.6874 H            1    LIG   0.0000
  18 H            0.1404    -4.9867     0.6315 H            1    LIG   0.0000
  19 H           -0.5449    -2.5669     1.0289 H            1    LIG   0.0000
  20 H           -0.8692    -0.5269     0.0084 H            1    LIG   0.0000
@<TRIPOS>BOND
   1        1        2 1
   2        2        3 ar
   3        3        4 ar
   4        4        5 1
   5        4        6 ar
   6        6        7 ar
   7        7        8 1
   8        8        9 1
   9        9       10 2
  10       10       11 1
  11       11       12 2
  12       12        8 1
  13        7       13 ar
  14       13        2 ar
  15        3       14 1
  16        6       15 1
  17        9       16 1
  18       10       17 1
  19       11       18 1
  20       12       19 1
  21       13       20 1

@<TRIPOS>MOLECULE

  20   21
SMALL
USER_CHARGES
@<TRIPOS>ATOM
   1 Cl1         -1.5701     2.2470     0.0290 Cl           1    LIG   0.0000
   2 C2          -0.0176     1.3766     0.0102 C.ar         1    LIG   0.0000
   3 C3           1.1694     2.1014     0.0022 C.ar         1    LIG   0.0000
   4 C4           2.3772     1.4115    -0.0127 C.ar         1    LIG   0.0000
   5 Cl5          3.9065     2.3216    -0.0233 Cl           1    LIG   0.0000
   6 C6           2.4122     0.0210    -0.0188 C.ar         1    LIG   0.0000
   7 C7           1.2105    -0.6793    -0.0107 C.ar         1    LIG   0.0000
   8 N8           1.2274    -2.0799    -0.0171 N.pl3        1    LIG   0.0000
   9 C9           2.2813    -2.8505    -0.4120 C.2          1    LIG   0.0000
  10 C10          1.9119    -4.1565    -0.2732 C.2          1    LIG   0.0000
  11 C11          0.5876    -4.1738     0.2225 C.2          1    LIG   0.0000
  12 C12          0.1905    -2.8773     0.3710 C.2          1    LIG   0.0000
  13 C13         -0.0108    -0.0141     0.0033 C.ar         1    LIG   0.0000
  14 H            1.1549     3.1013     0.0072 H            1    LIG   0.0000
  15 H            3.2854    -0.4663    -0.0288 H            1    LIG   0.0000
  16 H            3.1645    -2.5184    -0.7432 H            1    LIG   0.0000
  17 H            2.4749    -4.9557    -0.4837 H            1    LIG   0.0000
  18 H            0.0425    -4.9869     0.4266 H            1    LIG   0.0000
  19 H           -0.6999    -2.5673     0.7042 H            1    LIG   0.0000
  20 H           -0.8692    -0.5269     0.0084 H            1    LIG   0.0000
@<TRIPOS>BOND
   1        1        2 1
   2        2        3 ar
   3        3        4 ar
   4        4        5 1
   5        4        6 ar
   6        6        7 ar
   7        7        8 1
   8        8        9 1
   9        9       10 2
  10       10       11 1
  11       11       12 2
  12       12        8 1
  13        7       13 ar
  14       13        2 ar
  15        3       14 1
  16        6       15 1
  17        9       16 1
  18       10       17 1
  19       11       18 1
  20       12       19 1
  21       13       20 1

@<TRIPOS>MOLECULE

  20   21
SMALL
USER_CHARGES
@<TRIPOS>ATOM
   1 Cl1         -1.5701     2.2470     0.0290 Cl           1    LIG   0.0000
   2 C2          -0.0176     1.3766     0.0102 C.ar         1    LIG   0.0000
   3 C3           1.1694     2.1014     0.0022 C.ar         1    LIG   0.0000
   4 C4           2.3772     1.4115    -0.0127 C.ar         1    LIG   0.0000
   5 Cl5          3.9065     2.3216    -0.0233 Cl           1    LIG   0.0000
   6 C6           2.4122     0.0210    -0.0188 C.ar         1    LIG   0.0000
   7 C7           1.2105    -0.6793    -0.0107 C.ar         1    LIG   0.0000
   8 N8           1.2274    -2.0799    -0.0171 N.pl3        1    LIG   0.0000
   9 C9           2.0844    -2.8513    -0.7457 C.2          1    LIG   0.0000
  10 C10          1.7877    -4.1571    -0.4839 C.2          1    LIG   0.0000
  11 C11          0.7129    -4.1732     0.4349 C.2          1    LIG   0.0000
  12 C12          0.3875    -2.8765     0.7053 C.2          1    LIG   0.0000
  13 C13         -0.0108    -0.0141     0.0033 C.ar         1    LIG   0.0000
  14 H            1.1549     3.1013     0.0072 H            1    LIG   0.0000
  15 H            3.2854    -0.4663    -0.0288 H            1    LIG   0.0000
  16 H            2.8003    -2.5200    -1.3602 H            1    LIG   0.0000
  17 H            2.2466    -4.9567    -0.8711 H            1    LIG   0.0000
  18 H            0.2723    -4.9859     0.8162 H            1    LIG   0.0000
  19 H           -0.3359    -2.5657     1.3217 H            1    LIG   0.0000
  20 H           -0.8692    -0.5269     0.0084 H            1    LIG   0.0000
@<TRIPOS>BOND
   1        1        2 1
   2        2        3 ar
   3        3        4 ar
   4        4        5 1
   5        4        6 ar
   6        6        7 ar
   7        7        8 1
   8        8        9 1
   9        9       10 2
  10       10       11 1
  11       11       12 2
  12       12        8 1
  13        7       13 ar
  14       13        2 ar
  15        3       14 1
  16        6       15 1
  17        9       16 1
  18       10       17 1
  19       11       18 1
  20       12       19 1
  21       13       20 1

@<TRIPOS>MOLECULE

  20   21
SMALL
USER_CHARGES
@<TRIPOS>ATOM
   1 Cl1         -1.5701     2.2470     0.0290 Cl           1    LIG   0.0000
   2 C2          -0.0176     1.3766     0.0102 C.ar         1    LIG   0.0000
   3 C3           1.1694     2.1014     0.0022 C.ar         1    LIG   0.0000
   4 C4           2.3772     1.4115    -0.0127 C.ar         1    LIG   0.0000
   5 Cl5          3.9065     2.3216    -0.0233 Cl           1    LIG   0.0000
   6 C6           2.4122     0.0210    -0.0188 C.ar         1    LIG   0.0000
   7 C7           1.2105    -0.6793    -0.0107 C.ar         1    LIG   0.0000
   8 N8           1.2274    -2.0799    -0.0171 N.pl3        1    LIG   0.0000
   9 C9           2.3334    -2.8507    -0.2247 C.2          1    LIG   0.0000
  10 C10          1.9447    -4.1567    -0.1550 C.2          1    LIG   0.0000
  11 C11          0.5545    -4.1737     0.1032 C.2          1    LIG   0.0000
  12 C12          0.1384    -2.8771     0.1833 C.2          1    LIG   0.0000
  13 C13         -0.0108    -0.0141     0.0033 C.ar         1    LIG   0.0000
  14 H            1.1549     3.1013     0.0072 H            1    LIG   0.0000
  15 H            3.2854    -0.4663    -0.0288 H            1    LIG   0.0000
  16 H            3.2609    -2.5188    -0.3968 H            1    LIG   0.0000
  17 H            2.5352    -4.9560    -0.2662 H            1    LIG   0.0000
  18 H           -0.0183    -4.9867     0.2078 H            1    LIG   0.0000
  19 H           -0.7962    -2.5669     0.3575 H            1    LIG   0.0000
  20 H           -0.8692    -0.5269     0.0084 H            1    LIG   0.0000
@<TRIPOS>BOND
   1        1        2 1
   2        2        3 ar
   3        3        4 ar
   4        4        5 1
   5        4        6 ar
   6        6        7 ar
   7        7        8 1
   8        8        9 1
   9        9       10 2
  10       10       11 1
  11       11       12 2
  12       12        8 1
  13        7       13 ar
  14       13        2 ar
  15        3       14 1
  16        6       15 1
  17        9       16 1
  18       10       17 1
  19       11       18 1
  20       12       19 1
  21       13       20 1

@<TRIPOS>MOLECULE

  20   21
SMALL
USER_CHARGES
@<TRIPOS>ATOM
   1 Cl1         -1.5701     2.2470     0.0290 Cl           1    LIG   0.0000
   2 C2          -0.0176     1.3766     0.0102 C.ar         1    LIG   0.0000
   3 C3           1.1694     2.1014     0.0022 C.ar         1    LIG   0.0000
   4 C4           2.3772     1.4115    -0.0127 C.ar         1    LIG   0.0000
   5 Cl5          3.9065     2.3216    -0.0233 Cl           1    LIG   0.0000
   6 C6           2.4122     0.0210    -0.0188 C.ar         1    LIG   0.0000
   7 C7           1.2105    -0.6793    -0.0107 C.ar         1    LIG   0.0000
   8 N8           1.2274    -2.0799    -0.0171 N.pl3        1    LIG   0.0000
   9 C9           1.9456    -2.8524    -0.8818 C.2          1    LIG   0.0000
  10 C10          1.7002    -4.1577    -0.5699 C.2          1    LIG   0.0000
  11 C11          0.8012    -4.1726     0.5216 C.2          1    LIG   0.0000
  12 C12          0.5265    -2.8754     0.8418 C.2          1    LIG   0.0000
  13 C13         -0.0108    -0.0141     0.0033 C.ar         1    LIG   0.0000
  14 H            1.1549     3.1013     0.0072 H            1    LIG   0.0000
  15 H            3.2854    -0.4663    -0.0288 H            1    LIG   0.0000
  16 H            2.5437    -2.5219    -1.6120 H            1    LIG   0.0000
  17 H            2.0856    -4.9580    -1.0293 H            1    LIG   0.0000
  18 H            0.4343    -4.9847     0.9753 H            1    LIG   0.0000
  19 H           -0.0793    -2.5637     1.5738 H            1    LIG   0.0000
  20 H           -0.8692    -0.5269     0.0084 H            1    LIG   0.0000
@<TRIPOS>BOND
   1        1        2 1
   2        2        3 ar
   3        3        4 ar
   4        4        5 1
   5        4        6 ar
   6        6        7 ar
   7        7        8 1
   8        8        9 1
   9        9       10 2
  10       10       11 1
  11       11       12 2
  12       12        8 1
  13        7       13 ar
  14       13        2 ar
  15        3       14 1
  16        6       15 1
  17        9       16 1
  18       10       17 1
  19       11       18 1
  20       12       19 1
  21       13       20 1

@<TRIPOS>MOLECULE

  20   21
SMALL
USER_CHARGES
@<TRIPOS>ATOM
   1 Cl1         -1.5701     2.2470     0.0290 Cl           1    LIG   0.0000
   2 C2          -0.0176     1.3766     0.0102 C.ar         1    LIG   0.0000
   3 C3           1.1694     2.1014     0.0022 C.ar         1    LIG   0.0000
   4 C4           2.3772     1.4115    -0.0127 C.ar         1    LIG   0.0000
   5 Cl5          3.9065     2.3216    -0.0233 Cl           1    LIG   0.0000
   6 C6           2.4122     0.0210    -0.0188 C.ar         1    LIG   0.0000
   7 C7           1.2105    -0.6793    -0.0107 C.ar         1    LIG   0.0000
   8 N8           1.2274    -2.0799    -0.0171 N.pl3        1    LIG   0.0000
   9 C9           0.1215    -2.8783    -0.0101 C.2          1    LIG   0.0000
  10 C10          0.5485    -4.1741    -0.0202 C.2          1    LIG   0.0000
  11 C11          1.9625    -4.1561    -0.0330 C.2          1    LIG   0.0000
  12 C12          2.3540    -2.8494    -0.0307 C.2          1    LIG   0.0000
  13 C13         -0.0108    -0.0141     0.0033 C.ar         1    LIG   0.0000
  14 H            1.1549     3.1013     0.0072 H            1    LIG   0.0000
  15 H            3.2854    -0.4663    -0.0288 H            1    LIG   0.0000
  16 H           -0.8297    -2.5699     0.0005 H            1    LIG   0.0000
  17 H           -0.0324    -4.9881    -0.0188 H            1    LIG   0.0000
  18 H            2.5646    -4.9544    -0.0422 H            1    LIG   0.0000
  19 H            3.2967    -2.5157    -0.0378 H            1    LIG   0.0000
  20 H           -0.8692    -0.5269     0.0084 H            1    LIG   0.0000
@<TRIPOS>BOND
   1        1        2 1
   2        2        3 ar
   3        3        4 ar
   4        4        5 1
   5        4        6 ar
   6        6        7 ar
   7        7        8 1
   8        8        9 1
   9        9       10 2
  10       10       11 1
  11       11       12 2
  12       12        8 1
  13        7       13 ar
  14       13        2 ar
  15        3       14 1
  16        6       15 1
  17        9       16 1
  18       10       17 1
  19       11       18 1
  20       12       19 1
  21       13       20 1

@<TRIPOS>MOLECULE

  20   21
SMALL
USER_CHARGES
@<TRIPOS>ATOM
   1 Cl1         -1.5701     2.2470     0.0290 Cl           1    LIG   0.0000
   2 C2          -0.0176     1.3766     0.0102 C.ar         1    LIG   0.0000
   3 C3           1.1694     2.1014     0.0022 C.ar         1    LIG   0.0000
   4 C4           2.3772     1.4115    -0.0127 C.ar         1    LIG   0.0000
   5 Cl5          3.9065     2.3216    -0.0233 Cl           1    LIG   0.0000
   6 C6           2.4122     0.0210    -0.0188 C.ar         1    LIG   0.0000
   7 C7           1.2105    -0.6793    -0.0107 C.ar         1    LIG   0.0000
   8 N8           1.2274    -2.0799    -0.0171 N.pl3        1    LIG   0.0000
   9 C9           0.1366    -2.8773    -0.2039 C.2          1    LIG   0.0000
  10 C10          0.5581    -4.1734    -0.1425 C.2          1    LIG   0.0000
  11 C11          1.9528    -4.1567     0.0903 C.2          1    LIG   0.0000
  12 C12          2.3388    -2.8505     0.1634 C.2          1    LIG   0.0000
  13 C13         -0.0108    -0.0141     0.0033 C.ar         1    LIG   0.0000
  14 H            1.1549     3.1013     0.0072 H            1    LIG   0.0000
  15 H            3.2854    -0.4663    -0.0288 H            1    LIG   0.0000
  16 H           -0.8018    -2.5679    -0.3580 H            1    LIG   0.0000
  17 H           -0.0147    -4.9868    -0.2438 H            1    LIG   0.0000
  18 H            2.5469    -4.9557     0.1842 H            1    LIG   0.0000
  19 H            3.2686    -2.5177     0.3209 H            1    LIG   0.0000
  20 H           -0.8692    -0.5269     0.0084 H            1    LIG   0.0000
@<TRIPOS>BOND
   1        1        2 1
   2        2        3 ar
   3        3        4 ar
   4        4        5 1
   5        4        6 ar
   6        6        7 ar
   7        7        8 1
   8        8        9 1
   9        9       10 2
  10       10       11 1
  11       11       12 2
  12       12        8 1
  13        7       13 ar
  14       13        2 ar
  15        3       14 1
  16        6       15 1
  17        9       16 1
  18       10       17 1
  19       11       18 1
  20       12       19 1
  21       13       20 1

@<TRIPOS>MOLECULE

  20   21
SMALL
USER_CHARGES
@<TRIPOS>ATOM
   1 Cl1         -1.5701     2.2470     0.0290 Cl           1    LIG   0.0000
   2 C2          -0.0176     1.3766     0.0102 C.ar         1    LIG   0.0000
   3 C3           1.1694     2.1014     0.0022 C.ar         1    LIG   0.0000
   4 C4           2.3772     1.4115    -0.0127 C.ar         1    LIG   0.0000
   5 Cl5          3.9065     2.3216    -0.0233 Cl           1    LIG   0.0000
   6 C6           2.4122     0.0210    -0.0188 C.ar         1    LIG   0.0000
   7 C7           1.2105    -0.6793    -0.0107 C.ar         1    LIG   0.0000
   8 N8           1.2274    -2.0799    -0.0171 N.pl3        1    LIG   0.0000
   9 C9           2.2080    -2.8556     0.5279 C.2          1    LIG   0.0000
  10 C10          1.8654    -4.1598     0.3200 C.2          1    LIG   0.0000
  11 C11          0.6344    -4.1705    -0.3758 C.2          1    LIG   0.0000
  12 C12          0.2642    -2.8722    -0.5705 C.2          1    LIG   0.0000
  13 C13         -0.0108    -0.0141     0.0033 C.ar         1    LIG   0.0000
  14 H            1.1549     3.1013     0.0072 H            1    LIG   0.0000
  15 H            3.2854    -0.4663    -0.0288 H            1    LIG   0.0000
  16 H            3.0292    -2.5279     0.9952 H            1    LIG   0.0000
  17 H            2.3891    -4.9617     0.6073 H            1    LIG   0.0000
  18 H            0.1283    -4.9809    -0.6710 H            1    LIG   0.0000
  19 H           -0.5637    -2.5578    -1.0350 H            1    LIG   0.0000
  20 H           -0.8692    -0.5269     0.0084 H            1    LIG   0.0000
@<TRIPOS>BOND
   1        1        2 1
   2        2        3 ar
   3        3        4 ar
   4        4        5 1
   5        4        6 ar
   6        6        7 ar
   7        7        8 1
   8        8        9 1
   9        9       10 2
  10       10       11 1
  11       11       12 2
  12       12        8 1
  13        7       13 ar
  14       13        2 ar
  15        3       14 1
  16        6       15 1
  17        9       16 1
  18       10       17 1
  19       11       18 1
  20       12       19 1
  21       13       20 1

@<TRIPOS>MOLECULE

  20   21
SMALL
USER_CHARGES
@<TRIPOS>ATOM
   1 Cl1         -1.5701     2.2470     0.0290 Cl           1    LIG   0.0000
   2 C2          -0.0176     1.3766     0.0102 C.ar         1    LIG   0.0000
   3 C3           1.1694     2.1014     0.0022 C.ar         1    LIG   0.0000
   4 C4           2.3772     1.4115    -0.0127 C.ar         1    LIG   0.0000
   5 Cl5          3.9065     2.3216    -0.0233 Cl           1    LIG   0.0000
   6 C6           2.4122     0.0210    -0.0188 C.ar         1    LIG   0.0000
   7 C7           1.2105    -0.6793    -0.0107 C.ar         1    LIG   0.0000
   8 N8           1.2274    -2.0799    -0.0171 N.pl3        1    LIG   0.0000
   9 C9           2.0980    -2.8576     0.6883 C.2          1    LIG   0.0000
  10 C10          1.7959    -4.1611     0.4212 C.2          1    LIG   0.0000
  11 C11          0.7044    -4.1692    -0.4779 C.2          1    LIG   0.0000
  12 C12          0.3745    -2.8701    -0.7310 C.2          1    LIG   0.0000
  13 C13         -0.0108    -0.0141     0.0033 C.ar         1    LIG   0.0000
  14 H            1.1549     3.1013     0.0072 H            1    LIG   0.0000
  15 H            3.2854    -0.4663    -0.0288 H            1    LIG   0.0000
  16 H            2.8258    -2.5317     1.2917 H            1    LIG   0.0000
  17 H            2.2613    -4.9641     0.7933 H            1    LIG   0.0000
  18 H            0.2568    -4.9785    -0.8582 H            1    LIG   0.0000
  19 H           -0.3600    -2.5540    -1.3315 H            1    LIG   0.0000
  20 H           -0.8692    -0.5269     0.0084 H            1    LIG   0.0000
@<TRIPOS>BOND
   1        1        2 1
   2        2        3 ar
   3        3        4 ar
   4        4        5 1
   5        4        6 ar
   6        6        7 ar
   7        7        8 1
   8        8        9 1
   9        9       10 2
  10       10       11 1
  11       11       12 2
  12       12        8 1
  13        7       13 ar
  14       13        2 ar
  15        3       14 1
  16        6       15 1
  17        9       16 1
  18       10       17 1
  19       11       18 1
  20       12       19 1
  21       13       20 1

@<TRIPOS>MOLECULE

  20   21
SMALL
USER_CHARGES
@<TRIPOS>ATOM
   1 Cl1         -1.5701     2.2470     0.0290 Cl           1    LIG   0.0000
   2 C2          -0.0176     1.3766     0.0102 C.ar         1    LIG   0.0000
   3 C3           1.1694     2.1014     0.0022 C.ar         1    LIG   0.0000
   4 C4           2.3772     1.4115    -0.0127 C.ar         1    LIG   0.0000
   5 Cl5          3.9065     2.3216    -0.0233 Cl           1    LIG   0.0000
   6 C6           2.4122     0.0210    -0.0188 C.ar         1    LIG   0.0000
   7 C7           1.2105    -0.6793    -0.0107 C.ar         1    LIG   0.0000
   8 N8           1.2274    -2.0799    -0.0171 N.pl3        1    LIG   0.0000
   9 C9           2.2885    -2.8538     0.3510 C.2          1    LIG   0.0000
  10 C10          1.9162    -4.1586     0.2083 C.2          1    LIG   0.0000
  11 C11          0.5831    -4.1716    -0.2632 C.2          1    LIG   0.0000
  12 C12          0.1835    -2.8740    -0.3932 C.2          1    LIG   0.0000
  13 C13         -0.0108    -0.0141     0.0033 C.ar         1    LIG   0.0000
  14 H            1.1549     3.1013     0.0072 H            1    LIG   0.0000
  15 H            3.2854    -0.4663    -0.0288 H            1    LIG   0.0000
  16 H            3.1780    -2.5246     0.6678 H            1    LIG   0.0000
  17 H            2.4827    -4.9597     0.4019 H            1    LIG   0.0000
  18 H            0.0343    -4.9830    -0.4643 H            1    LIG   0.0000
  19 H           -0.7127    -2.5610    -0.7076 H            1    LIG   0.0000
  20 H           -0.8692    -0.5269     0.0084 H            1    LIG   0.0000
@<TRIPOS>BOND
   1        1        2 1
   2        2        3 ar
   3        3        4 ar
   4        4        5 1
   5        4        6 ar
   6        6        7 ar
   7        7        8 1
   8        8        9 1
   9        9       10 2
  10       10       11 1
  11       11       12 2
  12       12        8 1
  13        7       13 ar
  14       13        2 ar
  15        3       14 1
  16        6       15 1
  17        9       16 1
  18       10       17 1
  19       11       18 1
  20       12       19 1
  21       13       20 1

@<TRIPOS>MOLECULE

  20   21
SMALL
USER_CHARGES
@<TRIPOS>ATOM
   1 Cl1         -1.5701     2.2470     0.0290 Cl           1    LIG   0.0000
   2 C2          -0.0176     1.3766     0.0102 C.ar         1    LIG   0.0000
   3 C3           1.1694     2.1014     0.0022 C.ar         1    LIG   0.0000
   4 C4           2.3772     1.4115    -0.0127 C.ar         1    LIG   0.0000
   5 Cl5          3.9065     2.3216    -0.0233 Cl           1    LIG   0.0000
   6 C6           2.4122     0.0210    -0.0188 C.ar         1    LIG   0.0000
   7 C7           1.2105    -0.6793    -0.0107 C.ar         1    LIG   0.0000
   8 N8           1.2274    -2.0799    -0.0171 N.pl3        1    LIG   0.0000
   9 C9           1.9619    -2.8599     0.8270 C.2          1    LIG   0.0000
  10 C10          1.7099    -4.1625     0.5087 C.2          1    LIG   0.0000
  11 C11          0.7911    -4.1678    -0.5662 C.2          1    LIG   0.0000
  12 C12          0.5109    -2.8678    -0.8700 C.2          1    LIG   0.0000
  13 C13         -0.0108    -0.0141     0.0033 C.ar         1    LIG   0.0000
  14 H            1.1549     3.1013     0.0072 H            1    LIG   0.0000
  15 H            3.2854    -0.4663    -0.0288 H            1    LIG   0.0000
  16 H            2.5740    -2.5359     1.5483 H            1    LIG   0.0000
  17 H            2.1032    -4.9667     0.9543 H            1    LIG   0.0000
  18 H            0.4158    -4.9759    -1.0202 H            1    LIG   0.0000
  19 H           -0.1079    -2.5498    -1.5882 H            1    LIG   0.0000
  20 H           -0.8692    -0.5269     0.0084 H            1    LIG   0.0000
@<TRIPOS>BOND
   1        1        2 1
   2        2        3 ar
   3        3        4 ar
   4        4        5 1
   5        4        6 ar
   6        6        7 ar
   7        7        8 1
   8        8        9 1
   9        9       10 2
  10       10       11 1
  11       11       12 2
  12       12        8 1
  13        7       13 ar
  14       13        2 ar
  15        3       14 1
  16        6       15 1
  17        9       16 1
  18       10       17 1
  19       11       18 1
  20       12       19 1
  21       13       20 1

