@<TRIPOS>MOLECULE
*****
 20 21 0 0 0
SMALL
USER_CHARGES

@<TRIPOS>ATOM
      1 Cl1        -1.5701    2.2470    0.0290 Cl      1  LIG1        0.0000
      2 C2         -0.0176    1.3766    0.0102 C.ar    1  LIG1        0.0000
      3 C3          1.1694    2.1014    0.0022 C.ar    1  LIG1        0.0000
      4 C4          2.3772    1.4115   -0.0127 C.ar    1  LIG1        0.0000
      5 Cl5         3.9065    2.3216   -0.0233 Cl      1  LIG1        0.0000
      6 C6          2.4122    0.0210   -0.0188 C.ar    1  LIG1        0.0000
      7 C7          1.2105   -0.6793   -0.0107 C.ar    1  LIG1        0.0000
      8 N8          1.2274   -2.0799   -0.0171 N.pl3   1  LIG1        0.0000
      9 C9          0.1215   -2.8783   -0.0101 C.2     1  LIG1        0.0000
     10 C10         0.5485   -4.1741   -0.0202 C.2     1  LIG1        0.0000
     11 C11         1.9625   -4.1561   -0.0330 C.2     1  LIG1        0.0000
     12 C12         2.3540   -2.8494   -0.0307 C.2     1  LIG1        0.0000
     13 C13        -0.0108   -0.0141    0.0033 C.ar    1  LIG1        0.0000
     14 H           1.1549    3.1013    0.0072 H       1  LIG1        0.0000
     15 H           3.2854   -0.4663   -0.0288 H       1  LIG1        0.0000
     16 H          -0.8297   -2.5699    0.0005 H       1  LIG1        0.0000
     17 H          -0.0324   -4.9881   -0.0188 H       1  LIG1        0.0000
     18 H           2.5646   -4.9544   -0.0422 H       1  LIG1        0.0000
     19 H           3.2967   -2.5157   -0.0378 H       1  LIG1        0.0000
     20 H          -0.8692   -0.5269    0.0084 H       1  LIG1        0.0000
@<TRIPOS>BOND
     1     1     2    1
     2     2     3   ar
     3     3     4   ar
     4     4     5    1
     5     4     6   ar
     6     6     7   ar
     7     7     8    1
     8     8     9    1
     9     9    10    2
    10    10    11    1
    11    11    12    2
    12    12     8    1
    13     7    13   ar
    14    13     2   ar
    15     3    14    1
    16     6    15    1
    17     9    16    1
    18    10    17    1
    19    11    18    1
    20    12    19    1
    21    13    20    1
