@<TRIPOS>MOLECULE

  24   26
SMALL
USER_CHARGES
@<TRIPOS>ATOM
   1 O1           0.3750     2.0760     1.1190 O.co2        1    LIG   0.0000
   2 C2           1.0000     1.0000     1.0000 C.2          1    LIG   0.0000
   3 O3           0.3950    -0.0415     0.8848 O.co2        1    LIG  -1.0000
   4 C4           2.4502     1.0000     1.0000 C.2          1    LIG   0.0000
   5 O5           3.1975     2.0743     1.1188 O.2          1    LIG   0.0000
   6 C6           4.4630     1.7156     1.0829 C.ar         1    LIG   0.0000
   7 C7           5.6814     2.3746     1.1753 C.ar         1    LIG   0.0000
   8 C8           6.8873     1.6865     1.0806 C.ar         1    LIG   0.0000
   9 C9           6.8795     0.3076     0.8913 C.ar         1    LIG   0.0000
  10 C10          5.6867    -0.3969     0.7990 C.ar         1    LIG   0.0000
  11 C11          4.5450     0.3595     0.9140 C.ar         1    LIG   0.0000
  12 C12          3.2311    -0.1127     0.8822 C.2          1    LIG   0.0000
  13 C13          3.0555    -1.6176     0.7342 C.3          1    LIG   0.0000
  14 C14          4.1992    -2.2343    -0.0560 C.3          1    LIG   0.0000
  15 C15          5.5335    -1.8975     0.5910 C.3          1    LIG   0.0000
  16 H            5.6928     3.3650     1.3128 H            1    LIG   0.0000
  17 H            7.7544     2.1799     1.1483 H            1    LIG   0.0000
  18 H            7.7475    -0.1839     0.8206 H            1    LIG   0.0000
  19 H            2.1954    -1.7996     0.2577 H            1    LIG   0.0000
  20 H            3.0272    -2.0329     1.6435 H            1    LIG   0.0000
  21 H            4.0857    -3.2276    -0.0791 H            1    LIG   0.0000
  22 H            4.1858    -1.8755    -0.9894 H            1    LIG   0.0000
  23 H            5.5902    -2.3563     1.4777 H            1    LIG   0.0000
  24 H            6.2726    -2.2213     0.0003 H            1    LIG   0.0000
@<TRIPOS>BOND
   1        1        2 ar
   2        2        3 ar
   3        2        4 1
   4        4        5 1
   5        5        6 1
   6        6        7 ar
   7        7        8 ar
   8        8        9 ar
   9        9       10 ar
  10       10       11 ar
  11       11        6 ar
  12       11       12 1
  13       12        4 2
  14       12       13 1
  15       13       14 1
  16       14       15 1
  17       15       10 1
  18        7       16 1
  19        8       17 1
  20        9       18 1
  21       13       19 1
  22       13       20 1
  23       14       21 1
  24       14       22 1
  25       15       23 1
  26       15       24 1

@<TRIPOS>MOLECULE

  24   26
SMALL
USER_CHARGES
@<TRIPOS>ATOM
   1 O1           0.3750     2.0760     1.1190 O.co2        1    LIG   0.0000
   2 C2           1.0000     1.0000     1.0000 C.2          1    LIG   0.0000
   3 O3           0.3950    -0.0415     0.8848 O.co2        1    LIG  -1.0000
   4 C4           2.4502     1.0000     1.0000 C.2          1    LIG   0.0000
   5 O5           3.1975     1.4342     1.9897 O.2          1    LIG   0.0000
   6 C6           4.4630     1.2860     1.6612 C.ar         1    LIG   0.0000
   7 C7           5.6814     1.5355     2.2781 C.ar         1    LIG   0.0000
   8 C8           6.8873     1.2734     1.6348 C.ar         1    LIG   0.0000
   9 C9           6.8795     0.7479     0.3460 C.ar         1    LIG   0.0000
  10 C10          5.6867     0.4756    -0.3103 C.ar         1    LIG   0.0000
  11 C11          4.5450     0.7542     0.4023 C.ar         1    LIG   0.0000
  12 C12          3.2311     0.5457    -0.0225 C.2          1    LIG   0.0000
  13 C13          3.0555    -0.0786    -1.3998 C.3          1    LIG   0.0000
  14 C14          4.1992     0.2974    -2.3290 C.3          1    LIG   0.0000
  15 C15          5.5335    -0.0946    -1.7138 C.3          1    LIG   0.0000
  16 H            5.6928     1.9116     3.2045 H            1    LIG   0.0000
  17 H            7.7544     1.4615     2.0959 H            1    LIG   0.0000
  18 H            7.7475     0.5635    -0.1150 H            1    LIG   0.0000
  19 H            2.1954     0.2431    -1.7957 H            1    LIG   0.0000
  20 H            3.0272    -1.0737    -1.3048 H            1    LIG   0.0000
  21 H            4.0857    -0.1792    -3.2007 H            1    LIG   0.0000
  22 H            4.1858     1.2851    -2.4849 H            1    LIG   0.0000
  23 H            5.5902    -1.0919    -1.6678 H            1    LIG   0.0000
  24 H            6.2726     0.2551    -2.2895 H            1    LIG   0.0000
@<TRIPOS>BOND
   1        1        2 ar
   2        2        3 ar
   3        2        4 1
   4        4        5 1
   5        5        6 1
   6        6        7 ar
   7        7        8 ar
   8        8        9 ar
   9        9       10 ar
  10       10       11 ar
  11       11        6 ar
  12       11       12 1
  13       12        4 2
  14       12       13 1
  15       13       14 1
  16       14       15 1
  17       15       10 1
  18        7       16 1
  19        8       17 1
  20        9       18 1
  21       13       19 1
  22       13       20 1
  23       14       21 1
  24       14       22 1
  25       15       23 1
  26       15       24 1

@<TRIPOS>MOLECULE

  24   26
SMALL
USER_CHARGES
@<TRIPOS>ATOM
   1 O1           0.3750     2.0760     1.1190 O.co2        1    LIG   0.0000
   2 C2           1.0000     1.0000     1.0000 C.2          1    LIG   0.0000
   3 O3           0.3950    -0.0415     0.8848 O.co2        1    LIG  -1.0000
   4 C4           2.4502     1.0000     1.0000 C.2          1    LIG   0.0000
   5 O5           3.1975     1.6400     0.1291 O.2          1    LIG   0.0000
   6 C6           4.4630     1.4296     0.4217 C.ar         1    LIG   0.0000
   7 C7           5.6814     1.8391    -0.1028 C.ar         1    LIG   0.0000
   8 C8           6.8873     1.4131     0.4458 C.ar         1    LIG   0.0000
   9 C9           6.8795     0.5597     1.5453 C.ar         1    LIG   0.0000
  10 C10          5.6867     0.1274     2.1093 C.ar         1    LIG   0.0000
  11 C11          4.5450     0.6053     1.5117 C.ar         1    LIG   0.0000
  12 C12          3.2311     0.3416     1.9047 C.2          1    LIG   0.0000
  13 C13          3.0555    -0.5390     3.1340 C.3          1    LIG   0.0000
  14 C14          4.1992    -1.5317     3.2730 C.3          1    LIG   0.0000
  15 C15          5.5335    -0.8029     3.3048 C.3          1    LIG   0.0000
  16 H            5.6928     2.4534    -0.8918 H            1    LIG   0.0000
  17 H            7.7544     1.7184     0.0523 H            1    LIG   0.0000
  18 H            7.7475     0.2527     1.9355 H            1    LIG   0.0000
  19 H            2.1954    -1.0427     3.0533 H            1    LIG   0.0000
  20 H            3.0272     0.0408     3.9483 H            1    LIG   0.0000
  21 H            4.0857    -2.0483     4.1216 H            1    LIG   0.0000
  22 H            4.1858    -2.1606     2.4956 H            1    LIG   0.0000
  23 H            5.5902    -0.2644     4.1455 H            1    LIG   0.0000
  24 H            6.2726    -1.4764     3.2898 H            1    LIG   0.0000
@<TRIPOS>BOND
   1        1        2 ar
   2        2        3 ar
   3        2        4 1
   4        4        5 1
   5        5        6 1
   6        6        7 ar
   7        7        8 ar
   8        8        9 ar
   9        9       10 ar
  10       10       11 ar
  11       11        6 ar
  12       11       12 1
  13       12        4 2
  14       12       13 1
  15       13       14 1
  16       14       15 1
  17       15       10 1
  18        7       16 1
  19        8       17 1
  20        9       18 1
  21       13       19 1
  22       13       20 1
  23       14       21 1
  24       14       22 1
  25       15       23 1
  26       15       24 1

@<TRIPOS>MOLECULE

  24   26
SMALL
USER_CHARGES
@<TRIPOS>ATOM
   1 O1           0.3750     2.0760     1.1190 O.co2        1    LIG   0.0000
   2 C2           1.0000     1.0000     1.0000 C.2          1    LIG   0.0000
   3 O3           0.3950    -0.0415     0.8848 O.co2        1    LIG  -1.0000
   4 C4           2.4507     1.0000     1.0000 C.2          1    LIG   0.0000
   5 O5           3.1935     2.0786     1.1193 O.2          1    LIG   0.0000
   6 C6           4.4609     1.7219     1.0994 C.ar         1    LIG   0.0000
   7 C7           5.6828     2.3743     1.2111 C.ar         1    LIG   0.0000
   8 C8           6.8754     1.6649     1.1175 C.ar         1    LIG   0.0000
   9 C9           6.8741     0.2897     0.9054 C.ar         1    LIG   0.0000
  10 C10          5.6755    -0.3997     0.7831 C.ar         1    LIG   0.0000
  11 C11          4.5402     0.3681     0.9124 C.ar         1    LIG   0.0000
  12 C12          3.2312    -0.1148     0.8775 C.2          1    LIG   0.0000
  13 C13          3.0587    -1.6194     0.7185 C.3          1    LIG   0.0000
  14 C14          4.2672    -2.3935     1.2223 C.3          1    LIG   0.0000
  15 C15          5.5211    -1.8901     0.5241 C.3          1    LIG   0.0000
  16 H            5.7048     3.3629     1.3600 H            1    LIG   0.0000
  17 H            7.7457     2.1497     1.2039 H            1    LIG   0.0000
  18 H            7.7410    -0.2045     0.8407 H            1    LIG   0.0000
  19 H            2.9243    -1.8274    -0.2504 H            1    LIG   0.0000
  20 H            2.2532    -1.9076     1.2362 H            1    LIG   0.0000
  21 H            4.3597    -2.2612     2.2092 H            1    LIG   0.0000
  22 H            4.1448    -3.3665     1.0265 H            1    LIG   0.0000
  23 H            6.3196    -2.3757     0.8800 H            1    LIG   0.0000
  24 H            5.4436    -2.0521    -0.4597 H            1    LIG   0.0000
@<TRIPOS>BOND
   1        1        2 ar
   2        2        3 ar
   3        2        4 1
   4        4        5 1
   5        5        6 1
   6        6        7 ar
   7        7        8 ar
   8        8        9 ar
   9        9       10 ar
  10       10       11 ar
  11       11        6 ar
  12       11       12 1
  13       12        4 2
  14       12       13 1
  15       13       14 1
  16       14       15 1
  17       15       10 1
  18        7       16 1
  19        8       17 1
  20        9       18 1
  21       13       19 1
  22       13       20 1
  23       14       21 1
  24       14       22 1
  25       15       23 1
  26       15       24 1

@<TRIPOS>MOLECULE

  24   26
SMALL
USER_CHARGES
@<TRIPOS>ATOM
   1 O1           0.3750     2.0760     1.1190 O.co2        1    LIG   0.0000
   2 C2           1.0000     1.0000     1.0000 C.2          1    LIG   0.0000
   3 O3           0.3950    -0.0415     0.8848 O.co2        1    LIG  -1.0000
   4 C4           2.4507     1.0000     1.0000 C.2          1    LIG   0.0000
   5 O5           3.1935     1.4360     1.9937 O.2          1    LIG   0.0000
   6 C6           4.4609     1.2748     1.6749 C.ar         1    LIG   0.0000
   7 C7           5.6828     1.5044     2.2957 C.ar         1    LIG   0.0000
   8 C8           6.8754     1.2306     1.6346 C.ar         1    LIG   0.0000
   9 C9           6.8741     0.7268     0.3376 C.ar         1    LIG   0.0000
  10 C10          5.6755     0.4879    -0.3206 C.ar         1    LIG   0.0000
  11 C11          4.5402     0.7599     0.4090 C.ar         1    LIG   0.0000
  12 C12          3.2312     0.5487    -0.0267 C.2          1    LIG   0.0000
  13 C13          3.0587    -0.0659    -1.4093 C.3          1    LIG   0.0000
  14 C14          4.2672    -0.8893    -1.8277 C.3          1    LIG   0.0000
  15 C15          5.5211    -0.0329    -1.7409 C.3          1    LIG   0.0000
  16 H            5.7048     1.8697     3.2263 H            1    LIG   0.0000
  17 H            7.7457     1.3982     2.0976 H            1    LIG   0.0000
  18 H            7.7410     0.5357    -0.1227 H            1    LIG   0.0000
  19 H            2.9243     0.6691    -2.0738 H            1    LIG   0.0000
  20 H            2.2532    -0.6583    -1.4000 H            1    LIG   0.0000
  21 H            4.3597    -1.6778    -1.2197 H            1    LIG   0.0000
  22 H            4.1448    -1.2062    -2.7683 H            1    LIG   0.0000
  23 H            6.3196    -0.5839    -1.9834 H            1    LIG   0.0000
  24 H            5.4436     0.7381    -2.3730 H            1    LIG   0.0000
@<TRIPOS>BOND
   1        1        2 ar
   2        2        3 ar
   3        2        4 1
   4        4        5 1
   5        5        6 1
   6        6        7 ar
   7        7        8 ar
   8        8        9 ar
   9        9       10 ar
  10       10       11 ar
  11       11        6 ar
  12       11       12 1
  13       12        4 2
  14       12       13 1
  15       13       14 1
  16       14       15 1
  17       15       10 1
  18        7       16 1
  19        8       17 1
  20        9       18 1
  21       13       19 1
  22       13       20 1
  23       14       21 1
  24       14       22 1
  25       15       23 1
  26       15       24 1

@<TRIPOS>MOLECULE

  24   26
SMALL
USER_CHARGES
@<TRIPOS>ATOM
   1 O1           0.3750     2.0760     1.1190 O.co2        1    LIG   0.0000
   2 C2           1.0000     1.0000     1.0000 C.2          1    LIG   0.0000
   3 O3           0.3950    -0.0415     0.8848 O.co2        1    LIG  -1.0000
   4 C4           2.4507     1.0000     1.0000 C.2          1    LIG   0.0000
   5 O5           3.1935     1.6426     0.1256 O.2          1    LIG   0.0000
   6 C6           4.4609     1.4471     0.4245 C.ar         1    LIG   0.0000
   7 C7           5.6828     1.8699    -0.0847 C.ar         1    LIG   0.0000
   8 C8           6.8754     1.4342     0.4830 C.ar         1    LIG   0.0000
   9 C9           6.8741     0.5629     1.5678 C.ar         1    LIG   0.0000
  10 C10          5.6755     0.1123     2.1038 C.ar         1    LIG   0.0000
  11 C11          4.5402     0.6082     1.5035 C.ar         1    LIG   0.0000
  12 C12          3.2312     0.3365     1.9042 C.2          1    LIG   0.0000
  13 C13          3.0587    -0.5535     3.1277 C.3          1    LIG   0.0000
  14 C14          4.2672    -0.5042     4.0501 C.3          1    LIG   0.0000
  15 C15          5.5211    -0.8572     3.2650 C.3          1    LIG   0.0000
  16 H            5.7048     2.4932    -0.8664 H            1    LIG   0.0000
  17 H            7.7457     1.7515     0.1063 H            1    LIG   0.0000
  18 H            7.7410     0.2598     1.9635 H            1    LIG   0.0000
  19 H            2.9243    -1.4966     2.8235 H            1    LIG   0.0000
  20 H            2.2532    -0.2493     3.6361 H            1    LIG   0.0000
  21 H            4.3597     0.4166     4.4289 H            1    LIG   0.0000
  22 H            4.1448    -1.1603     4.7948 H            1    LIG   0.0000
  23 H            6.3196    -0.7918     3.8634 H            1    LIG   0.0000
  24 H            5.4436    -1.7902     2.9133 H            1    LIG   0.0000
@<TRIPOS>BOND
   1        1        2 ar
   2        2        3 ar
   3        2        4 1
   4        4        5 1
   5        5        6 1
   6        6        7 ar
   7        7        8 ar
   8        8        9 ar
   9        9       10 ar
  10       10       11 ar
  11       11        6 ar
  12       11       12 1
  13       12        4 2
  14       12       13 1
  15       13       14 1
  16       14       15 1
  17       15       10 1
  18        7       16 1
  19        8       17 1
  20        9       18 1
  21       13       19 1
  22       13       20 1
  23       14       21 1
  24       14       22 1
  25       15       23 1
  26       15       24 1

@<TRIPOS>MOLECULE

  24   26
SMALL
USER_CHARGES
@<TRIPOS>ATOM
   1 O1           0.3750     2.0760     1.1190 O.co2        1    LIG   0.0000
   2 C2           1.0000     1.0000     1.0000 C.2          1    LIG   0.0000
   3 O3           0.3950    -0.0415     0.8848 O.co2        1    LIG  -1.0000
   4 C4           2.4540     1.0000     1.0000 C.2          1    LIG   0.0000
   5 O5           3.1568     2.0783     0.7374 O.2          1    LIG   0.0000
   6 C6           4.4309     1.7484     0.8068 C.ar         1    LIG   0.0000
   7 C7           5.6304     2.4164     0.6147 C.ar         1    LIG   0.0000
   8 C8           6.8536     1.7801     0.8006 C.ar         1    LIG   0.0000
   9 C9           6.8916     0.4424     1.1845 C.ar         1    LIG   0.0000
  10 C10          5.7295    -0.2808     1.3809 C.ar         1    LIG   0.0000
  11 C11          4.5712     0.4314     1.1593 C.ar         1    LIG   0.0000
  12 C12          3.2718    -0.0774     1.2524 C.2          1    LIG   0.0000
  13 C13          3.1953    -1.5661     1.5866 C.3          1    LIG   0.0000
  14 C14          4.3418    -2.1007     2.4401 C.3          1    LIG   0.0000
  15 C15          5.6736    -1.7423     1.7979 C.3          1    LIG   0.0000
  16 H            5.6161     3.3768     0.3365 H            1    LIG   0.0000
  17 H            7.7057     2.2837     0.6583 H            1    LIG   0.0000
  18 H            7.7760    -0.0038     1.3210 H            1    LIG   0.0000
  19 H            3.1862    -2.0761     0.7264 H            1    LIG   0.0000
  20 H            2.3407    -1.7289     2.0797 H            1    LIG   0.0000
  21 H            4.2935    -1.6947     3.3527 H            1    LIG   0.0000
  22 H            4.2655    -3.0951     2.5131 H            1    LIG   0.0000
  23 H            6.4067    -1.9190     2.4547 H            1    LIG   0.0000
  24 H            5.8061    -2.3144     0.9885 H            1    LIG   0.0000
@<TRIPOS>BOND
   1        1        2 ar
   2        2        3 ar
   3        2        4 1
   4        4        5 1
   5        5        6 1
   6        6        7 ar
   7        7        8 ar
   8        8        9 ar
   9        9       10 ar
  10       10       11 ar
  11       11        6 ar
  12       11       12 1
  13       12        4 2
  14       12       13 1
  15       13       14 1
  16       14       15 1
  17       15       10 1
  18        7       16 1
  19        8       17 1
  20        9       18 1
  21       13       19 1
  22       13       20 1
  23       14       21 1
  24       14       22 1
  25       15       23 1
  26       15       24 1

@<TRIPOS>MOLECULE

  24   26
SMALL
USER_CHARGES
@<TRIPOS>ATOM
   1 O1           0.3750     2.0760     1.1190 O.co2        1    LIG   0.0000
   2 C2           1.0000     1.0000     1.0000 C.2          1    LIG   0.0000
   3 O3           0.3950    -0.0415     0.8848 O.co2        1    LIG  -1.0000
   4 C4           2.4540     1.0000     1.0000 C.2          1    LIG   0.0000
   5 O5           3.1568     1.8943     1.6572 O.2          1    LIG   0.0000
   6 C6           4.4309     1.6290     1.4491 C.ar         1    LIG   0.0000
   7 C7           5.6304     2.2056     1.8374 C.ar         1    LIG   0.0000
   8 C8           6.8536     1.6542     1.4694 C.ar         1    LIG   0.0000
   9 C9           6.8916     0.5002     0.6915 C.ar         1    LIG   0.0000
  10 C10          5.7295    -0.1151     0.2637 C.ar         1    LIG   0.0000
  11 C11          4.5712     0.5125     0.6668 C.ar         1    LIG   0.0000
  12 C12          3.2718     0.1141     0.3369 C.2          1    LIG   0.0000
  13 C13          3.1953    -1.0988    -0.5887 C.3          1    LIG   0.0000
  14 C14          4.3418    -2.0962    -0.4496 C.3          1    LIG   0.0000
  15 C15          5.6736    -1.3739    -0.5878 C.3          1    LIG   0.0000
  16 H            5.6161     3.0361     2.3943 H            1    LIG   0.0000
  17 H            7.7057     2.0869     1.7637 H            1    LIG   0.0000
  18 H            7.7760     0.1089     0.4373 H            1    LIG   0.0000
  19 H            3.1862    -0.7677    -1.5323 H            1    LIG   0.0000
  20 H            2.3407    -1.5812    -0.3964 H            1    LIG   0.0000
  21 H            4.2935    -2.5344     0.4480 H            1    LIG   0.0000
  22 H            4.2655    -2.7914    -1.1644 H            1    LIG   0.0000
  23 H            6.4067    -1.9906    -0.3010 H            1    LIG   0.0000
  24 H            5.8061    -1.1216    -1.5463 H            1    LIG   0.0000
@<TRIPOS>BOND
   1        1        2 ar
   2        2        3 ar
   3        2        4 1
   4        4        5 1
   5        5        6 1
   6        6        7 ar
   7        7        8 ar
   8        8        9 ar
   9        9       10 ar
  10       10       11 ar
  11       11        6 ar
  12       11       12 1
  13       12        4 2
  14       12       13 1
  15       13       14 1
  16       14       15 1
  17       15       10 1
  18        7       16 1
  19        8       17 1
  20        9       18 1
  21       13       19 1
  22       13       20 1
  23       14       21 1
  24       14       22 1
  25       15       23 1
  26       15       24 1

@<TRIPOS>MOLECULE

  24   26
SMALL
USER_CHARGES
@<TRIPOS>ATOM
   1 O1           0.3750     2.0760     1.1190 O.co2        1    LIG   0.0000
   2 C2           1.0000     1.0000     1.0000 C.2          1    LIG   0.0000
   3 O3           0.3950    -0.0415     0.8848 O.co2        1    LIG  -1.0000
   4 C4           2.4540     1.0000     1.0000 C.2          1    LIG   0.0000
   5 O5           3.1568     0.8780     2.1031 O.2          1    LIG   0.0000
   6 C6           4.4309     0.9256     1.7693 C.ar         1    LIG   0.0000
   7 C7           5.6304     0.8776     2.4628 C.ar         1    LIG   0.0000
   8 C8           6.8536     0.9206     1.8013 C.ar         1    LIG   0.0000
   9 C9           6.8916     1.0173     0.4129 C.ar         1    LIG   0.0000
  10 C10          5.7295     1.0801    -0.3338 C.ar         1    LIG   0.0000
  11 C11          4.5712     1.0448     0.4112 C.ar         1    LIG   0.0000
  12 C12          3.2718     1.1313    -0.0987 C.2          1    LIG   0.0000
  13 C13          3.1953     1.3265    -1.6120 C.3          1    LIG   0.0000
  14 C14          4.3418     0.7073    -2.4062 C.3          1    LIG   0.0000
  15 C15          5.6736     1.1881    -1.8498 C.3          1    LIG   0.0000
  16 H            5.6161     0.8106     3.4604 H            1    LIG   0.0000
  17 H            7.7057     0.8821     2.3231 H            1    LIG   0.0000
  18 H            7.7760     1.0417    -0.0531 H            1    LIG   0.0000
  19 H            3.1862     2.3092    -1.7970 H            1    LIG   0.0000
  20 H            2.3407     0.9188    -1.9336 H            1    LIG   0.0000
  21 H            4.2935    -0.2891    -2.3368 H            1    LIG   0.0000
  22 H            4.2655     0.9787    -3.3656 H            1    LIG   0.0000
  23 H            6.4067     0.6314    -2.2404 H            1    LIG   0.0000
  24 H            5.8061     2.1444    -2.1105 H            1    LIG   0.0000
@<TRIPOS>BOND
   1        1        2 ar
   2        2        3 ar
   3        2        4 1
   4        4        5 1
   5        5        6 1
   6        6        7 ar
   7        7        8 ar
   8        8        9 ar
   9        9       10 ar
  10       10       11 ar
  11       11        6 ar
  12       11       12 1
  13       12        4 2
  14       12       13 1
  15       13       14 1
  16       14       15 1
  17       15       10 1
  18        7       16 1
  19        8       17 1
  20        9       18 1
  21       13       19 1
  22       13       20 1
  23       14       21 1
  24       14       22 1
  25       15       23 1
  26       15       24 1

@<TRIPOS>MOLECULE

  24   26
SMALL
USER_CHARGES
@<TRIPOS>ATOM
   1 O1           0.3750     2.0760     1.1190 O.co2        1    LIG   0.0000
   2 C2           1.0000     1.0000     1.0000 C.2          1    LIG   0.0000
   3 O3           0.3950    -0.0415     0.8848 O.co2        1    LIG  -1.0000
   4 C4           2.4540     1.0000     1.0000 C.2          1    LIG   0.0000
   5 O5           3.1568     1.3117    -0.0651 O.2          1    LIG   0.0000
   6 C6           4.4309     1.2069     0.2553 C.ar         1    LIG   0.0000
   7 C7           5.6304     1.3746    -0.4193 C.ar         1    LIG   0.0000
   8 C8           6.8536     1.2173     0.2247 C.ar         1    LIG   0.0000
   9 C9           6.8916     0.8810     1.5751 C.ar         1    LIG   0.0000
  10 C10          5.7295     0.6895     2.2996 C.ar         1    LIG   0.0000
  11 C11          4.5712     0.8536     1.5721 C.ar         1    LIG   0.0000
  12 C12          3.2718     0.6799     2.0592 C.2          1    LIG   0.0000
  13 C13          3.1953     0.2249     3.5156 C.3          1    LIG   0.0000
  14 C14          4.3418     0.6968     4.4053 C.3          1    LIG   0.0000
  15 C15          5.6736     0.3199     3.7738 C.3          1    LIG   0.0000
  16 H            5.6161     1.6138    -1.3901 H            1    LIG   0.0000
  17 H            7.7057     1.3459    -0.2826 H            1    LIG   0.0000
  18 H            7.7760     0.7760     2.0298 H            1    LIG   0.0000
  19 H            3.1862    -0.7750     3.5272 H            1    LIG   0.0000
  20 H            2.3407     0.5706     3.9031 H            1    LIG   0.0000
  21 H            4.2935     1.6901     4.5100 H            1    LIG   0.0000
  22 H            4.2655     0.2629     5.3030 H            1    LIG   0.0000
  23 H            6.4067     0.8003     4.2552 H            1    LIG   0.0000
  24 H            5.8061    -0.6671     3.8646 H            1    LIG   0.0000
@<TRIPOS>BOND
   1        1        2 ar
   2        2        3 ar
   3        2        4 1
   4        4        5 1
   5        5        6 1
   6        6        7 ar
   7        7        8 ar
   8        8        9 ar
   9        9       10 ar
  10       10       11 ar
  11       11        6 ar
  12       11       12 1
  13       12        4 2
  14       12       13 1
  15       13       14 1
  16       14       15 1
  17       15       10 1
  18        7       16 1
  19        8       17 1
  20        9       18 1
  21       13       19 1
  22       13       20 1
  23       14       21 1
  24       14       22 1
  25       15       23 1
  26       15       24 1

