@<TRIPOS>MOLECULE
*****
 24 26 0 0 0
SMALL
USER_CHARGES

@<TRIPOS>ATOM
      1 O1          0.3750    2.0760    1.1190 O.2     1  LIG1        0.0000
      2 C2          1.0000    1.0000    1.0000 C.3     1  LIG1        0.0000
      3 O3          0.3950   -0.0415    0.8848 O.2     1  LIG1       -1.0000
      4 C4          2.4502    1.0000    1.0000 C.2     1  LIG1        0.0000
      5 O5          3.1975    2.0743    1.1188 O.2     1  LIG1        0.0000
      6 C6          4.4630    1.7156    1.0829 C.3     1  LIG1        0.0000
      7 C7          5.6814    2.3746    1.1753 C.3     1  LIG1        0.0000
      8 C8          6.8873    1.6865    1.0806 C.3     1  LIG1        0.0000
      9 C9          6.8795    0.3076    0.8913 C.3     1  LIG1        0.0000
     10 C10         5.6867   -0.3969    0.7990 C.3     1  LIG1        0.0000
     11 C11         4.5450    0.3595    0.9140 C.3     1  LIG1        0.0000
     12 C12         3.2311   -0.1127    0.8822 C.2     1  LIG1        0.0000
     13 C13         3.0555   -1.6176    0.7342 C.3     1  LIG1        0.0000
     14 C14         4.1992   -2.2343   -0.0560 C.3     1  LIG1        0.0000
     15 C15         5.5335   -1.8975    0.5910 C.3     1  LIG1        0.0000
     16 H           5.6928    3.3650    1.3128 H       1  LIG1        0.0000
     17 H           7.7544    2.1799    1.1483 H       1  LIG1        0.0000
     18 H           7.7475   -0.1839    0.8206 H       1  LIG1        0.0000
     19 H           2.1954   -1.7996    0.2577 H       1  LIG1        0.0000
     20 H           3.0272   -2.0329    1.6435 H       1  LIG1        0.0000
     21 H           4.0857   -3.2276   -0.0791 H       1  LIG1        0.0000
     22 H           4.1858   -1.8755   -0.9894 H       1  LIG1        0.0000
     23 H           5.5902   -2.3563    1.4777 H       1  LIG1        0.0000
     24 H           6.2726   -2.2213    0.0003 H       1  LIG1        0.0000
@<TRIPOS>UNITY_ATOM_ATTR
1 1
charge -1
@<TRIPOS>BOND
     1     1     2    1
     2     2     3    2
     3     2     4    1
     4     4     5    1
     5     5     6    1
     6     6     7   ar
     7     7     8   ar
     8     8     9   ar
     9     9    10   ar
    10    10    11   ar
    11    11     6   ar
    12    11    12    1
    13    12     4    2
    14    12    13    1
    15    13    14    1
    16    14    15    1
    17    15    10    1
    18     7    16    1
    19     8    17    1
    20     9    18    1
    21    13    19    1
    22    13    20    1
    23    14    21    1
    24    14    22    1
    25    15    23    1
    26    15    24    1
