@<TRIPOS>MOLECULE
*****
 24 26 0 0 0
SMALL
USER_CHARGES

@<TRIPOS>ATOM
      1 O1          0.3750    2.0760    1.1190 O.2     1  LIG1        0.0000
      2 C2          1.0000    1.0000    1.0000 C.3     1  LIG1        0.0000
      3 O3          0.3950   -0.0415    0.8848 O.2     1  LIG1       -1.0000
      4 C4          2.4502    1.0000    1.0000 C.2     1  LIG1        0.0000
      5 O5          3.1975    1.6400    0.1291 O.2     1  LIG1        0.0000
      6 C6          4.4630    1.4296    0.4217 C.3     1  LIG1        0.0000
      7 C7          5.6814    1.8391   -0.1028 C.3     1  LIG1        0.0000
      8 C8          6.8873    1.4131    0.4458 C.3     1  LIG1        0.0000
      9 C9          6.8795    0.5597    1.5453 C.3     1  LIG1        0.0000
     10 C10         5.6867    0.1274    2.1093 C.3     1  LIG1        0.0000
     11 C11         4.5450    0.6053    1.5117 C.3     1  LIG1        0.0000
     12 C12         3.2311    0.3416    1.9047 C.2     1  LIG1        0.0000
     13 C13         3.0555   -0.5390    3.1340 C.3     1  LIG1        0.0000
     14 C14         4.1992   -1.5317    3.2730 C.3     1  LIG1        0.0000
     15 C15         5.5335   -0.8029    3.3048 C.3     1  LIG1        0.0000
     16 H           5.6928    2.4534   -0.8918 H       1  LIG1        0.0000
     17 H           7.7544    1.7184    0.0523 H       1  LIG1        0.0000
     18 H           7.7475    0.2527    1.9355 H       1  LIG1        0.0000
     19 H           2.1954   -1.0427    3.0533 H       1  LIG1        0.0000
     20 H           3.0272    0.0408    3.9483 H       1  LIG1        0.0000
     21 H           4.0857   -2.0483    4.1216 H       1  LIG1        0.0000
     22 H           4.1858   -2.1606    2.4956 H       1  LIG1        0.0000
     23 H           5.5902   -0.2644    4.1455 H       1  LIG1        0.0000
     24 H           6.2726   -1.4764    3.2898 H       1  LIG1        0.0000
@<TRIPOS>UNITY_ATOM_ATTR
1 1
charge -1
@<TRIPOS>BOND
     1     1     2    1
     2     2     3    2
     3     2     4    1
     4     4     5    1
     5     5     6    1
     6     6     7   ar
     7     7     8   ar
     8     8     9   ar
     9     9    10   ar
    10    10    11   ar
    11    11     6   ar
    12    11    12    1
    13    12     4    2
    14    12    13    1
    15    13    14    1
    16    14    15    1
    17    15    10    1
    18     7    16    1
    19     8    17    1
    20     9    18    1
    21    13    19    1
    22    13    20    1
    23    14    21    1
    24    14    22    1
    25    15    23    1
    26    15    24    1
