@<TRIPOS>MOLECULE
*****
 24 26 0 0 0
SMALL
USER_CHARGES

@<TRIPOS>ATOM
      1 O1          0.3750    2.0760    1.1190 O.2     1  LIG1        0.0000
      2 C2          1.0000    1.0000    1.0000 C.3     1  LIG1        0.0000
      3 O3          0.3950   -0.0415    0.8848 O.2     1  LIG1       -1.0000
      4 C4          2.4540    1.0000    1.0000 C.2     1  LIG1        0.0000
      5 O5          3.1568    0.8780    2.1031 O.2     1  LIG1        0.0000
      6 C6          4.4309    0.9256    1.7693 C.3     1  LIG1        0.0000
      7 C7          5.6304    0.8776    2.4628 C.3     1  LIG1        0.0000
      8 C8          6.8536    0.9206    1.8013 C.3     1  LIG1        0.0000
      9 C9          6.8916    1.0173    0.4129 C.3     1  LIG1        0.0000
     10 C10         5.7295    1.0801   -0.3338 C.3     1  LIG1        0.0000
     11 C11         4.5712    1.0448    0.4112 C.3     1  LIG1        0.0000
     12 C12         3.2718    1.1313   -0.0987 C.2     1  LIG1        0.0000
     13 C13         3.1953    1.3265   -1.6120 C.3     1  LIG1        0.0000
     14 C14         4.3418    0.7073   -2.4062 C.3     1  LIG1        0.0000
     15 C15         5.6736    1.1881   -1.8498 C.3     1  LIG1        0.0000
     16 H           5.6161    0.8106    3.4604 H       1  LIG1        0.0000
     17 H           7.7057    0.8821    2.3231 H       1  LIG1        0.0000
     18 H           7.7760    1.0417   -0.0531 H       1  LIG1        0.0000
     19 H           3.1862    2.3092   -1.7970 H       1  LIG1        0.0000
     20 H           2.3407    0.9188   -1.9336 H       1  LIG1        0.0000
     21 H           4.2935   -0.2891   -2.3368 H       1  LIG1        0.0000
     22 H           4.2655    0.9787   -3.3656 H       1  LIG1        0.0000
     23 H           6.4067    0.6314   -2.2404 H       1  LIG1        0.0000
     24 H           5.8061    2.1444   -2.1105 H       1  LIG1        0.0000
@<TRIPOS>UNITY_ATOM_ATTR
1 1
charge -1
@<TRIPOS>BOND
     1     1     2    1
     2     2     3    2
     3     2     4    1
     4     4     5    1
     5     5     6    1
     6     6     7   ar
     7     7     8   ar
     8     8     9   ar
     9     9    10   ar
    10    10    11   ar
    11    11     6   ar
    12    11    12    1
    13    12     4    2
    14    12    13    1
    15    13    14    1
    16    14    15    1
    17    15    10    1
    18     7    16    1
    19     8    17    1
    20     9    18    1
    21    13    19    1
    22    13    20    1
    23    14    21    1
    24    14    22    1
    25    15    23    1
    26    15    24    1
