@<TRIPOS>MOLECULE
*****
 24 26 0 0 0
SMALL
USER_CHARGES

@<TRIPOS>ATOM
      1 O1          0.3750    2.0760    1.1190 O.2     1  LIG1        0.0000
      2 C2          1.0000    1.0000    1.0000 C.3     1  LIG1        0.0000
      3 O3          0.3950   -0.0415    0.8848 O.2     1  LIG1       -1.0000
      4 C4          2.4540    1.0000    1.0000 C.2     1  LIG1        0.0000
      5 O5          3.1568    1.3117   -0.0651 O.2     1  LIG1        0.0000
      6 C6          4.4309    1.2069    0.2553 C.3     1  LIG1        0.0000
      7 C7          5.6304    1.3746   -0.4193 C.3     1  LIG1        0.0000
      8 C8          6.8536    1.2173    0.2247 C.3     1  LIG1        0.0000
      9 C9          6.8916    0.8810    1.5751 C.3     1  LIG1        0.0000
     10 C10         5.7295    0.6895    2.2996 C.3     1  LIG1        0.0000
     11 C11         4.5712    0.8536    1.5721 C.3     1  LIG1        0.0000
     12 C12         3.2718    0.6799    2.0592 C.2     1  LIG1        0.0000
     13 C13         3.1953    0.2249    3.5156 C.3     1  LIG1        0.0000
     14 C14         4.3418    0.6968    4.4053 C.3     1  LIG1        0.0000
     15 C15         5.6736    0.3199    3.7738 C.3     1  LIG1        0.0000
     16 H           5.6161    1.6138   -1.3901 H       1  LIG1        0.0000
     17 H           7.7057    1.3459   -0.2826 H       1  LIG1        0.0000
     18 H           7.7760    0.7760    2.0298 H       1  LIG1        0.0000
     19 H           3.1862   -0.7750    3.5272 H       1  LIG1        0.0000
     20 H           2.3407    0.5706    3.9031 H       1  LIG1        0.0000
     21 H           4.2935    1.6901    4.5100 H       1  LIG1        0.0000
     22 H           4.2655    0.2629    5.3030 H       1  LIG1        0.0000
     23 H           6.4067    0.8003    4.2552 H       1  LIG1        0.0000
     24 H           5.8061   -0.6671    3.8646 H       1  LIG1        0.0000
@<TRIPOS>UNITY_ATOM_ATTR
1 1
charge -1
@<TRIPOS>BOND
     1     1     2    1
     2     2     3    2
     3     2     4    1
     4     4     5    1
     5     5     6    1
     6     6     7   ar
     7     7     8   ar
     8     8     9   ar
     9     9    10   ar
    10    10    11   ar
    11    11     6   ar
    12    11    12    1
    13    12     4    2
    14    12    13    1
    15    13    14    1
    16    14    15    1
    17    15    10    1
    18     7    16    1
    19     8    17    1
    20     9    18    1
    21    13    19    1
    22    13    20    1
    23    14    21    1
    24    14    22    1
    25    15    23    1
    26    15    24    1
