@<TRIPOS>MOLECULE
*****
 24 26 0 0 0
SMALL
USER_CHARGES

@<TRIPOS>ATOM
      1 O1          0.3750    2.0760    1.1190 O.2     1  LIG1        0.0000
      2 C2          1.0000    1.0000    1.0000 C.3     1  LIG1        0.0000
      3 O3          0.3950   -0.0415    0.8848 O.2     1  LIG1       -1.0000
      4 C4          2.4507    1.0000    1.0000 C.2     1  LIG1        0.0000
      5 O5          3.1935    1.4360    1.9937 O.2     1  LIG1        0.0000
      6 C6          4.4609    1.2748    1.6749 C.3     1  LIG1        0.0000
      7 C7          5.6828    1.5044    2.2957 C.3     1  LIG1        0.0000
      8 C8          6.8754    1.2306    1.6346 C.3     1  LIG1        0.0000
      9 C9          6.8741    0.7268    0.3376 C.3     1  LIG1        0.0000
     10 C10         5.6755    0.4879   -0.3206 C.3     1  LIG1        0.0000
     11 C11         4.5402    0.7599    0.4090 C.3     1  LIG1        0.0000
     12 C12         3.2312    0.5487   -0.0267 C.2     1  LIG1        0.0000
     13 C13         3.0587   -0.0659   -1.4093 C.3     1  LIG1        0.0000
     14 C14         4.2672   -0.8893   -1.8277 C.3     1  LIG1        0.0000
     15 C15         5.5211   -0.0329   -1.7409 C.3     1  LIG1        0.0000
     16 H           5.7048    1.8697    3.2263 H       1  LIG1        0.0000
     17 H           7.7457    1.3982    2.0976 H       1  LIG1        0.0000
     18 H           7.7410    0.5357   -0.1227 H       1  LIG1        0.0000
     19 H           2.9243    0.6691   -2.0738 H       1  LIG1        0.0000
     20 H           2.2532   -0.6583   -1.4000 H       1  LIG1        0.0000
     21 H           4.3597   -1.6778   -1.2197 H       1  LIG1        0.0000
     22 H           4.1448   -1.2062   -2.7683 H       1  LIG1        0.0000
     23 H           6.3196   -0.5839   -1.9834 H       1  LIG1        0.0000
     24 H           5.4436    0.7381   -2.3730 H       1  LIG1        0.0000
@<TRIPOS>UNITY_ATOM_ATTR
1 1
charge -1
@<TRIPOS>BOND
     1     1     2    1
     2     2     3    2
     3     2     4    1
     4     4     5    1
     5     5     6    1
     6     6     7   ar
     7     7     8   ar
     8     8     9   ar
     9     9    10   ar
    10    10    11   ar
    11    11     6   ar
    12    11    12    1
    13    12     4    2
    14    12    13    1
    15    13    14    1
    16    14    15    1
    17    15    10    1
    18     7    16    1
    19     8    17    1
    20     9    18    1
    21    13    19    1
    22    13    20    1
    23    14    21    1
    24    14    22    1
    25    15    23    1
    26    15    24    1
