@<TRIPOS>MOLECULE
*****
 24 26 0 0 0
SMALL
USER_CHARGES

@<TRIPOS>ATOM
      1 O1          0.3750    2.0760    1.1190 O.2     1  LIG1        0.0000
      2 C2          1.0000    1.0000    1.0000 C.3     1  LIG1        0.0000
      3 O3          0.3950   -0.0415    0.8848 O.2     1  LIG1       -1.0000
      4 C4          2.4540    1.0000    1.0000 C.2     1  LIG1        0.0000
      5 O5          3.1568    2.0783    0.7374 O.2     1  LIG1        0.0000
      6 C6          4.4309    1.7484    0.8068 C.3     1  LIG1        0.0000
      7 C7          5.6304    2.4164    0.6147 C.3     1  LIG1        0.0000
      8 C8          6.8536    1.7801    0.8006 C.3     1  LIG1        0.0000
      9 C9          6.8916    0.4424    1.1845 C.3     1  LIG1        0.0000
     10 C10         5.7295   -0.2808    1.3809 C.3     1  LIG1        0.0000
     11 C11         4.5712    0.4314    1.1593 C.3     1  LIG1        0.0000
     12 C12         3.2718   -0.0774    1.2524 C.2     1  LIG1        0.0000
     13 C13         3.1953   -1.5661    1.5866 C.3     1  LIG1        0.0000
     14 C14         4.3418   -2.1007    2.4401 C.3     1  LIG1        0.0000
     15 C15         5.6736   -1.7423    1.7979 C.3     1  LIG1        0.0000
     16 H           5.6161    3.3768    0.3365 H       1  LIG1        0.0000
     17 H           7.7057    2.2837    0.6583 H       1  LIG1        0.0000
     18 H           7.7760   -0.0038    1.3210 H       1  LIG1        0.0000
     19 H           3.1862   -2.0761    0.7264 H       1  LIG1        0.0000
     20 H           2.3407   -1.7289    2.0797 H       1  LIG1        0.0000
     21 H           4.2935   -1.6947    3.3527 H       1  LIG1        0.0000
     22 H           4.2655   -3.0951    2.5131 H       1  LIG1        0.0000
     23 H           6.4067   -1.9190    2.4547 H       1  LIG1        0.0000
     24 H           5.8061   -2.3144    0.9885 H       1  LIG1        0.0000
@<TRIPOS>UNITY_ATOM_ATTR
1 1
charge -1
@<TRIPOS>BOND
     1     1     2    1
     2     2     3    2
     3     2     4    1
     4     4     5    1
     5     5     6    1
     6     6     7   ar
     7     7     8   ar
     8     8     9   ar
     9     9    10   ar
    10    10    11   ar
    11    11     6   ar
    12    11    12    1
    13    12     4    2
    14    12    13    1
    15    13    14    1
    16    14    15    1
    17    15    10    1
    18     7    16    1
    19     8    17    1
    20     9    18    1
    21    13    19    1
    22    13    20    1
    23    14    21    1
    24    14    22    1
    25    15    23    1
    26    15    24    1
