@<TRIPOS>MOLECULE
*****
 24 26 0 0 0
SMALL
USER_CHARGES

@<TRIPOS>ATOM
      1 O1          0.3750    2.0760    1.1190 O.2     1  LIG1        0.0000
      2 C2          1.0000    1.0000    1.0000 C.3     1  LIG1        0.0000
      3 O3          0.3950   -0.0415    0.8848 O.2     1  LIG1       -1.0000
      4 C4          2.4540    1.0000    1.0000 C.2     1  LIG1        0.0000
      5 O5          3.1568    1.8943    1.6572 O.2     1  LIG1        0.0000
      6 C6          4.4309    1.6290    1.4491 C.3     1  LIG1        0.0000
      7 C7          5.6304    2.2056    1.8374 C.3     1  LIG1        0.0000
      8 C8          6.8536    1.6542    1.4694 C.3     1  LIG1        0.0000
      9 C9          6.8916    0.5002    0.6915 C.3     1  LIG1        0.0000
     10 C10         5.7295   -0.1151    0.2637 C.3     1  LIG1        0.0000
     11 C11         4.5712    0.5125    0.6668 C.3     1  LIG1        0.0000
     12 C12         3.2718    0.1141    0.3369 C.2     1  LIG1        0.0000
     13 C13         3.1953   -1.0988   -0.5887 C.3     1  LIG1        0.0000
     14 C14         4.3418   -2.0962   -0.4496 C.3     1  LIG1        0.0000
     15 C15         5.6736   -1.3739   -0.5878 C.3     1  LIG1        0.0000
     16 H           5.6161    3.0361    2.3943 H       1  LIG1        0.0000
     17 H           7.7057    2.0869    1.7637 H       1  LIG1        0.0000
     18 H           7.7760    0.1089    0.4373 H       1  LIG1        0.0000
     19 H           3.1862   -0.7677   -1.5323 H       1  LIG1        0.0000
     20 H           2.3407   -1.5812   -0.3964 H       1  LIG1        0.0000
     21 H           4.2935   -2.5344    0.4480 H       1  LIG1        0.0000
     22 H           4.2655   -2.7914   -1.1644 H       1  LIG1        0.0000
     23 H           6.4067   -1.9906   -0.3010 H       1  LIG1        0.0000
     24 H           5.8061   -1.1216   -1.5463 H       1  LIG1        0.0000
@<TRIPOS>UNITY_ATOM_ATTR
1 1
charge -1
@<TRIPOS>BOND
     1     1     2    1
     2     2     3    2
     3     2     4    1
     4     4     5    1
     5     5     6    1
     6     6     7   ar
     7     7     8   ar
     8     8     9   ar
     9     9    10   ar
    10    10    11   ar
    11    11     6   ar
    12    11    12    1
    13    12     4    2
    14    12    13    1
    15    13    14    1
    16    14    15    1
    17    15    10    1
    18     7    16    1
    19     8    17    1
    20     9    18    1
    21    13    19    1
    22    13    20    1
    23    14    21    1
    24    14    22    1
    25    15    23    1
    26    15    24    1
