@<TRIPOS>MOLECULE
*****
 24 26 0 0 0
SMALL
USER_CHARGES

@<TRIPOS>ATOM
      1 O1          0.3750    2.0760    1.1190 O.2     1  LIG1        0.0000
      2 C2          1.0000    1.0000    1.0000 C.3     1  LIG1        0.0000
      3 O3          0.3950   -0.0415    0.8848 O.2     1  LIG1       -1.0000
      4 C4          2.4507    1.0000    1.0000 C.2     1  LIG1        0.0000
      5 O5          3.1935    2.0786    1.1193 O.2     1  LIG1        0.0000
      6 C6          4.4609    1.7219    1.0994 C.3     1  LIG1        0.0000
      7 C7          5.6828    2.3743    1.2111 C.3     1  LIG1        0.0000
      8 C8          6.8754    1.6649    1.1175 C.3     1  LIG1        0.0000
      9 C9          6.8741    0.2897    0.9054 C.3     1  LIG1        0.0000
     10 C10         5.6755   -0.3997    0.7831 C.3     1  LIG1        0.0000
     11 C11         4.5402    0.3681    0.9124 C.3     1  LIG1        0.0000
     12 C12         3.2312   -0.1148    0.8775 C.2     1  LIG1        0.0000
     13 C13         3.0587   -1.6194    0.7185 C.3     1  LIG1        0.0000
     14 C14         4.2672   -2.3935    1.2223 C.3     1  LIG1        0.0000
     15 C15         5.5211   -1.8901    0.5241 C.3     1  LIG1        0.0000
     16 H           5.7048    3.3629    1.3600 H       1  LIG1        0.0000
     17 H           7.7457    2.1497    1.2039 H       1  LIG1        0.0000
     18 H           7.7410   -0.2045    0.8407 H       1  LIG1        0.0000
     19 H           2.9243   -1.8274   -0.2504 H       1  LIG1        0.0000
     20 H           2.2532   -1.9076    1.2362 H       1  LIG1        0.0000
     21 H           4.3597   -2.2612    2.2092 H       1  LIG1        0.0000
     22 H           4.1448   -3.3665    1.0265 H       1  LIG1        0.0000
     23 H           6.3196   -2.3757    0.8800 H       1  LIG1        0.0000
     24 H           5.4436   -2.0521   -0.4597 H       1  LIG1        0.0000
@<TRIPOS>UNITY_ATOM_ATTR
1 1
charge -1
@<TRIPOS>BOND
     1     1     2    1
     2     2     3    2
     3     2     4    1
     4     4     5    1
     5     5     6    1
     6     6     7   ar
     7     7     8   ar
     8     8     9   ar
     9     9    10   ar
    10    10    11   ar
    11    11     6   ar
    12    11    12    1
    13    12     4    2
    14    12    13    1
    15    13    14    1
    16    14    15    1
    17    15    10    1
    18     7    16    1
    19     8    17    1
    20     9    18    1
    21    13    19    1
    22    13    20    1
    23    14    21    1
    24    14    22    1
    25    15    23    1
    26    15    24    1
