@<TRIPOS>MOLECULE

  59   63
SMALL
USER_CHARGES
@<TRIPOS>ATOM
   1 C1          -3.4190     2.6134     3.0345 C.3          1    LIG   0.0000
   2 O2          -3.0153     2.6025     1.6731 O.3          1    LIG   0.0000
   3 C3          -1.7651     2.2753     1.4582 C.2          1    LIG   0.0000
   4 O4          -1.0469     2.0105     2.3823 O.2          1    LIG   0.0000
   5 C5          -1.2244     2.2311     0.0383 C.3          1    LIG   0.0000
   6 N6          -2.2371     1.6482    -0.8537 N.am         1    LIG   0.0000
   7 C7          -2.7250     2.3780    -1.9055 C.2          1    LIG   0.0000
   8 O8          -2.3258     3.4931    -2.0985 O.2          1    LIG   0.0000
   9 C9          -3.7241     1.8030    -2.7855 C.ar         1    LIG   0.0000
  10 C10         -4.5132     2.6381    -3.5695 C.ar         1    LIG   0.0000
  11 C11         -5.4694     2.0781    -4.4102 C.ar         1    LIG   0.0000
  12 C12         -5.6285     0.6965    -4.4609 C.ar         1    LIG   0.0000
  13 C13         -4.8347    -0.1311    -3.6736 C.ar         1    LIG   0.0000
  14 C14         -3.8764     0.4210    -2.8295 C.ar         1    LIG   0.0000
  15 C15          0.0345     1.3787     0.0016 C.2          1    LIG   0.0000
  16 N16          0.0672     0.0683    -0.0305 N.2          1    LIG   0.0000
  17 N17          1.3285    -0.2980    -0.0563 N.2          1    LIG   0.0000
  18 C18          2.0564     0.7932    -0.0407 C.2          1    LIG   0.0000
  19 C19          3.5075     0.8351    -0.0594 C.2          1    LIG   0.0000
  20 N20          4.2857     1.9559    -0.0438 N.2          1    LIG   0.0000
  21 C21          5.5292     1.5389    -0.0791 C.2          1    LIG   0.0000
  22 C22          6.6846     2.4154    -0.0895 C.ar         1    LIG   0.0000
  23 C23          7.9628     1.8689    -0.1368 C.ar         1    LIG   0.0000
  24 C24          9.0652     2.7170    -0.1456 C.ar         1    LIG   0.0000
  25 C25          8.8830     4.0961    -0.1077 C.ar         1    LIG   0.0000
  26 C26          7.6010     4.6340    -0.0608 C.ar         1    LIG   0.0000
  27 C27          6.4930     3.7927    -0.0510 C.ar         1    LIG   0.0000
  28 O28          5.5680     0.2209    -0.1113 O.2          1    LIG   0.0000
  29 C29          4.3413    -0.2405    -0.0948 C.2          1    LIG   0.0000
  30 N30          3.9720    -1.5918    -0.1185 N.pl3        1    LIG   0.0000
  31 N31          3.2699    -2.2040     0.8045 N.2          1    LIG   0.0000
  32 C32          3.1004    -3.4633     0.4773 C.2          1    LIG   0.0000
  33 C33          2.3425    -4.5004     1.2889 C.3          1    LIG   0.0000
  34 C34          3.7432    -3.6836    -0.7579 C.2          1    LIG   0.0000
  35 C35          4.2800    -2.4831    -1.1004 C.2          1    LIG   0.0000
  36 C36          5.0804    -2.1922    -2.3595 C.3          1    LIG   0.0000
  37 O37          1.2649     1.8378    -0.0033 O.2          1    LIG   0.0000
  38 H           -1.0076     3.1590    -0.2649 H            1    LIG   0.0000
  39 H           -4.3828     2.8734     3.0943 H            1    LIG   0.0000
  40 H           -3.2947     1.7018     3.4263 H            1    LIG   0.0000
  41 H           -2.8638     3.2727     3.5415 H            1    LIG   0.0000
  42 H           -2.5697     0.7190    -0.6929 H            1    LIG   0.0000
  43 H           -4.3944     3.6302    -3.5292 H            1    LIG   0.0000
  44 H           -6.0428     2.6684    -4.9783 H            1    LIG   0.0000
  45 H           -6.3168     0.2968    -5.0663 H            1    LIG   0.0000
  46 H           -4.9529    -1.1232    -3.7143 H            1    LIG   0.0000
  47 H           -3.3034    -0.1691    -2.2607 H            1    LIG   0.0000
  48 H            8.0878     0.8771    -0.1641 H            1    LIG   0.0000
  49 H            9.9890     2.3356    -0.1793 H            1    LIG   0.0000
  50 H            9.6775     4.7033    -0.1143 H            1    LIG   0.0000
  51 H            7.4758     5.6258    -0.0342 H            1    LIG   0.0000
  52 H            5.5691     4.1739    -0.0166 H            1    LIG   0.0000
  53 H            2.3663    -5.3792     0.8122 H            1    LIG   0.0000
  54 H            2.7695    -4.5972     2.1879 H            1    LIG   0.0000
  55 H            1.3930    -4.2074     1.4006 H            1    LIG   0.0000
  56 H            3.7935    -4.5399    -1.2720 H            1    LIG   0.0000
  57 H            5.1564    -3.0260    -2.9062 H            1    LIG   0.0000
  58 H            4.6169    -1.4848    -2.8931 H            1    LIG   0.0000
  59 H            5.9944    -1.8744    -2.1074 H            1    LIG   0.0000
@<TRIPOS>BOND
   1        1        2 1
   2        2        3 1
   3        3        4 2
   4        3        5 1
   5        5        6 1
   6        6        7 am
   7        7        8 2
   8        7        9 1
   9        9       10 ar
  10       10       11 ar
  11       11       12 ar
  12       12       13 ar
  13       13       14 ar
  14       14        9 ar
  15        5       15 1
  16       15       16 2
  17       16       17 1
  18       17       18 2
  19       18       19 1
  20       19       20 1
  21       20       21 2
  22       21       22 1
  23       22       23 ar
  24       23       24 ar
  25       24       25 ar
  26       25       26 ar
  27       26       27 ar
  28       27       22 ar
  29       21       28 1
  30       28       29 1
  31       29       19 2
  32       29       30 1
  33       30       31 1
  34       31       32 2
  35       32       33 1
  36       32       34 1
  37       34       35 2
  38       35       30 1
  39       35       36 1
  40       18       37 1
  41       37       15 1
  42        5       38 1
  43        1       39 1
  44        1       40 1
  45        1       41 1
  46        6       42 1
  47       10       43 1
  48       11       44 1
  49       12       45 1
  50       13       46 1
  51       14       47 1
  52       23       48 1
  53       24       49 1
  54       25       50 1
  55       26       51 1
  56       27       52 1
  57       33       53 1
  58       33       54 1
  59       33       55 1
  60       34       56 1
  61       36       57 1
  62       36       58 1
  63       36       59 1

@<TRIPOS>MOLECULE

  59   63
SMALL
USER_CHARGES
@<TRIPOS>ATOM
   1 C1          -3.4190     2.6134     3.0345 C.3          1    LIG   0.0000
   2 O2          -3.0153     2.6025     1.6731 O.3          1    LIG   0.0000
   3 C3          -1.7651     2.2753     1.4582 C.2          1    LIG   0.0000
   4 O4          -1.0469     2.0105     2.3823 O.2          1    LIG   0.0000
   5 C5          -1.2244     2.2311     0.0383 C.3          1    LIG   0.0000
   6 N6          -2.2371     1.6482    -0.8537 N.am         1    LIG   0.0000
   7 C7          -2.7250     2.3780    -1.9055 C.2          1    LIG   0.0000
   8 O8          -2.3258     3.4931    -2.0985 O.2          1    LIG   0.0000
   9 C9          -3.7241     1.8030    -2.7855 C.ar         1    LIG   0.0000
  10 C10         -4.5132     2.6381    -3.5695 C.ar         1    LIG   0.0000
  11 C11         -5.4694     2.0781    -4.4102 C.ar         1    LIG   0.0000
  12 C12         -5.6285     0.6965    -4.4609 C.ar         1    LIG   0.0000
  13 C13         -4.8347    -0.1311    -3.6736 C.ar         1    LIG   0.0000
  14 C14         -3.8764     0.4210    -2.8295 C.ar         1    LIG   0.0000
  15 C15          0.0345     1.3787     0.0016 C.2          1    LIG   0.0000
  16 N16          0.0672     0.0683    -0.0305 N.2          1    LIG   0.0000
  17 N17          1.3285    -0.2980    -0.0563 N.2          1    LIG   0.0000
  18 C18          2.0564     0.7932    -0.0407 C.2          1    LIG   0.0000
  19 C19          3.5075     0.8351    -0.0594 C.2          1    LIG   0.0000
  20 N20          4.2855     1.5836    -0.8940 N.2          1    LIG   0.0000
  21 C21          5.5294     1.3134    -0.5755 C.2          1    LIG   0.0000
  22 C22          6.6850     1.8925    -1.2332 C.ar         1    LIG   0.0000
  23 C23          7.9638     1.5306    -0.8226 C.ar         1    LIG   0.0000
  24 C24          9.0664     2.0914    -1.4584 C.ar         1    LIG   0.0000
  25 C25          8.8839     3.0036    -2.4934 C.ar         1    LIG   0.0000
  26 C26          7.6014     3.3596    -2.8976 C.ar         1    LIG   0.0000
  27 C27          6.4931     2.8038    -2.2665 C.ar         1    LIG   0.0000
  28 O28          5.5684     0.4420     0.4138 O.2          1    LIG   0.0000
  29 C29          4.3415     0.1331     0.7562 C.2          1    LIG   0.0000
  30 N30          3.9723    -0.7615     1.7693 N.pl3        1    LIG   0.0000
  31 N31          3.2678    -1.8542     1.5986 N.2          1    LIG   0.0000
  32 C32          3.0994    -2.4633     2.7485 C.2          1    LIG   0.0000
  33 C33          2.3383    -3.7601     2.9667 C.3          1    LIG   0.0000
  34 C34          3.7487    -1.7045     3.7435 C.2          1    LIG   0.0000
  35 C35          4.2857    -0.6417     3.0888 C.2          1    LIG   0.0000
  36 C36          5.0938     0.4789     3.7224 C.3          1    LIG   0.0000
  37 O37          1.2649     1.8378    -0.0033 O.2          1    LIG   0.0000
  38 H           -1.0076     3.1590    -0.2649 H            1    LIG   0.0000
  39 H           -4.3828     2.8734     3.0943 H            1    LIG   0.0000
  40 H           -3.2947     1.7018     3.4263 H            1    LIG   0.0000
  41 H           -2.8638     3.2727     3.5415 H            1    LIG   0.0000
  42 H           -2.5697     0.7190    -0.6929 H            1    LIG   0.0000
  43 H           -4.3944     3.6302    -3.5292 H            1    LIG   0.0000
  44 H           -6.0428     2.6684    -4.9783 H            1    LIG   0.0000
  45 H           -6.3168     0.2968    -5.0663 H            1    LIG   0.0000
  46 H           -4.9529    -1.1232    -3.7143 H            1    LIG   0.0000
  47 H           -3.3034    -0.1691    -2.2607 H            1    LIG   0.0000
  48 H            8.0890     0.8744    -0.0785 H            1    LIG   0.0000
  49 H            9.9905     1.8390    -1.1718 H            1    LIG   0.0000
  50 H            9.6786     3.4052    -2.9486 H            1    LIG   0.0000
  51 H            7.4760     4.0153    -3.6422 H            1    LIG   0.0000
  52 H            5.5688     3.0566    -2.5525 H            1    LIG   0.0000
  53 H            2.3637    -4.0025     3.9365 H            1    LIG   0.0000
  54 H            1.3883    -3.6418     2.6775 H            1    LIG   0.0000
  55 H            2.7618    -4.4896     2.4296 H            1    LIG   0.0000
  56 H            3.8025    -1.9053     4.7217 H            1    LIG   0.0000
  57 H            5.1726     0.3179     4.7062 H            1    LIG   0.0000
  58 H            6.0065     0.5035     3.3145 H            1    LIG   0.0000
  59 H            4.6340     1.3526     3.5634 H            1    LIG   0.0000
@<TRIPOS>BOND
   1        1        2 1
   2        2        3 1
   3        3        4 2
   4        3        5 1
   5        5        6 1
   6        6        7 am
   7        7        8 2
   8        7        9 1
   9        9       10 ar
  10       10       11 ar
  11       11       12 ar
  12       12       13 ar
  13       13       14 ar
  14       14        9 ar
  15        5       15 1
  16       15       16 2
  17       16       17 1
  18       17       18 2
  19       18       19 1
  20       19       20 1
  21       20       21 2
  22       21       22 1
  23       22       23 ar
  24       23       24 ar
  25       24       25 ar
  26       25       26 ar
  27       26       27 ar
  28       27       22 ar
  29       21       28 1
  30       28       29 1
  31       29       19 2
  32       29       30 1
  33       30       31 1
  34       31       32 2
  35       32       33 1
  36       32       34 1
  37       34       35 2
  38       35       30 1
  39       35       36 1
  40       18       37 1
  41       37       15 1
  42        5       38 1
  43        1       39 1
  44        1       40 1
  45        1       41 1
  46        6       42 1
  47       10       43 1
  48       11       44 1
  49       12       45 1
  50       13       46 1
  51       14       47 1
  52       23       48 1
  53       24       49 1
  54       25       50 1
  55       26       51 1
  56       27       52 1
  57       33       53 1
  58       33       54 1
  59       33       55 1
  60       34       56 1
  61       36       57 1
  62       36       58 1
  63       36       59 1

@<TRIPOS>MOLECULE

  59   63
SMALL
USER_CHARGES
@<TRIPOS>ATOM
   1 C1          -3.4190     2.6134     3.0345 C.3          1    LIG   0.0000
   2 O2          -3.0153     2.6025     1.6731 O.3          1    LIG   0.0000
   3 C3          -1.7651     2.2753     1.4582 C.2          1    LIG   0.0000
   4 O4          -1.0469     2.0105     2.3823 O.2          1    LIG   0.0000
   5 C5          -1.2244     2.2311     0.0383 C.3          1    LIG   0.0000
   6 N6          -2.2371     1.6482    -0.8537 N.am         1    LIG   0.0000
   7 C7          -2.7250     2.3780    -1.9055 C.2          1    LIG   0.0000
   8 O8          -2.3258     3.4931    -2.0985 O.2          1    LIG   0.0000
   9 C9          -3.7241     1.8030    -2.7855 C.ar         1    LIG   0.0000
  10 C10         -4.5132     2.6381    -3.5695 C.ar         1    LIG   0.0000
  11 C11         -5.4694     2.0781    -4.4102 C.ar         1    LIG   0.0000
  12 C12         -5.6285     0.6965    -4.4609 C.ar         1    LIG   0.0000
  13 C13         -4.8347    -0.1311    -3.6736 C.ar         1    LIG   0.0000
  14 C14         -3.8764     0.4210    -2.8295 C.ar         1    LIG   0.0000
  15 C15          0.0345     1.3787     0.0016 C.2          1    LIG   0.0000
  16 N16          0.0672     0.0683    -0.0305 N.2          1    LIG   0.0000
  17 N17          1.3285    -0.2980    -0.0563 N.2          1    LIG   0.0000
  18 C18          2.0564     0.7932    -0.0407 C.2          1    LIG   0.0000
  19 C19          3.5075     0.8351    -0.0594 C.2          1    LIG   0.0000
  20 N20          4.3418     0.4591     0.9528 N.2          1    LIG   0.0000
  21 C21          5.5621     0.6677     0.5182 C.2          1    LIG   0.0000
  22 C22          6.7604     0.4094     1.2933 C.ar         1    LIG   0.0000
  23 C23          8.0086     0.6743     0.7396 C.ar         1    LIG   0.0000
  24 C24          9.1525     0.4229     1.4898 C.ar         1    LIG   0.0000
  25 C25          9.0411    -0.0877     2.7795 C.ar         1    LIG   0.0000
  26 C26          7.7887    -0.3493     3.3254 C.ar         1    LIG   0.0000
  27 C27          6.6395    -0.1014     2.5815 C.ar         1    LIG   0.0000
  28 O28          5.5335     1.1483    -0.7098 O.2          1    LIG   0.0000
  29 C29          4.2851     1.2573    -1.0941 C.2          1    LIG   0.0000
  30 N30          3.8474     1.7304    -2.3381 N.pl3        1    LIG   0.0000
  31 N31          3.1242     1.0530    -3.1970 N.2          1    LIG   0.0000
  32 C32          2.8877     1.7852    -4.2598 C.2          1    LIG   0.0000
  33 C33          2.0861     1.3559    -5.4771 C.3          1    LIG   0.0000
  34 C34          3.5062     3.0383    -4.0730 C.2          1    LIG   0.0000
  35 C35          4.0999     2.9652    -2.8528 C.2          1    LIG   0.0000
  36 C36          4.9015     4.0705    -2.1849 C.3          1    LIG   0.0000
  37 O37          1.2649     1.8378    -0.0033 O.2          1    LIG   0.0000
  38 H           -1.0076     3.1590    -0.2649 H            1    LIG   0.0000
  39 H           -4.3828     2.8734     3.0943 H            1    LIG   0.0000
  40 H           -3.2947     1.7018     3.4263 H            1    LIG   0.0000
  41 H           -2.8638     3.2727     3.5415 H            1    LIG   0.0000
  42 H           -2.5697     0.7190    -0.6929 H            1    LIG   0.0000
  43 H           -4.3944     3.6302    -3.5292 H            1    LIG   0.0000
  44 H           -6.0428     2.6684    -4.9783 H            1    LIG   0.0000
  45 H           -6.3168     0.2968    -5.0663 H            1    LIG   0.0000
  46 H           -4.9529    -1.1232    -3.7143 H            1    LIG   0.0000
  47 H           -3.3034    -0.1691    -2.2607 H            1    LIG   0.0000
  48 H            8.0827     1.0414    -0.1877 H            1    LIG   0.0000
  49 H           10.0554     0.6092     1.1022 H            1    LIG   0.0000
  50 H            9.8654    -0.2673     3.3165 H            1    LIG   0.0000
  51 H            7.7144    -0.7158     4.2528 H            1    LIG   0.0000
  52 H            5.7365    -0.2883     2.9686 H            1    LIG   0.0000
  53 H            2.0605     2.1041    -6.1401 H            1    LIG   0.0000
  54 H            2.5165     0.5555    -5.8942 H            1    LIG   0.0000
  55 H            1.1538     1.1257    -5.1981 H            1    LIG   0.0000
  56 H            3.5077     3.8146    -4.7033 H            1    LIG   0.0000
  57 H            4.9296     4.8706    -2.7842 H            1    LIG   0.0000
  58 H            4.4694     4.3185    -1.3179 H            1    LIG   0.0000
  59 H            5.8330     3.7497    -2.0134 H            1    LIG   0.0000
@<TRIPOS>BOND
   1        1        2 1
   2        2        3 1
   3        3        4 2
   4        3        5 1
   5        5        6 1
   6        6        7 am
   7        7        8 2
   8        7        9 1
   9        9       10 ar
  10       10       11 ar
  11       11       12 ar
  12       12       13 ar
  13       13       14 ar
  14       14        9 ar
  15        5       15 1
  16       15       16 2
  17       16       17 1
  18       17       18 2
  19       18       19 1
  20       19       20 1
  21       20       21 2
  22       21       22 1
  23       22       23 ar
  24       23       24 ar
  25       24       25 ar
  26       25       26 ar
  27       26       27 ar
  28       27       22 ar
  29       21       28 1
  30       28       29 1
  31       29       19 2
  32       29       30 1
  33       30       31 1
  34       31       32 2
  35       32       33 1
  36       32       34 1
  37       34       35 2
  38       35       30 1
  39       35       36 1
  40       18       37 1
  41       37       15 1
  42        5       38 1
  43        1       39 1
  44        1       40 1
  45        1       41 1
  46        6       42 1
  47       10       43 1
  48       11       44 1
  49       12       45 1
  50       13       46 1
  51       14       47 1
  52       23       48 1
  53       24       49 1
  54       25       50 1
  55       26       51 1
  56       27       52 1
  57       33       53 1
  58       33       54 1
  59       33       55 1
  60       34       56 1
  61       36       57 1
  62       36       58 1
  63       36       59 1

@<TRIPOS>MOLECULE

  59   63
SMALL
USER_CHARGES
@<TRIPOS>ATOM
   1 C1          -3.4190     2.6134     3.0345 C.3          1    LIG   0.0000
   2 O2          -3.0153     2.6025     1.6731 O.3          1    LIG   0.0000
   3 C3          -1.7651     2.2753     1.4582 C.2          1    LIG   0.0000
   4 O4          -1.0469     2.0105     2.3823 O.2          1    LIG   0.0000
   5 C5          -1.2244     2.2311     0.0383 C.3          1    LIG   0.0000
   6 N6          -2.2371     1.6482    -0.8537 N.am         1    LIG   0.0000
   7 C7          -2.7250     2.3780    -1.9055 C.2          1    LIG   0.0000
   8 O8          -2.3258     3.4931    -2.0985 O.2          1    LIG   0.0000
   9 C9          -3.7241     1.8030    -2.7855 C.ar         1    LIG   0.0000
  10 C10         -4.5132     2.6381    -3.5695 C.ar         1    LIG   0.0000
  11 C11         -5.4694     2.0781    -4.4102 C.ar         1    LIG   0.0000
  12 C12         -5.6285     0.6965    -4.4609 C.ar         1    LIG   0.0000
  13 C13         -4.8347    -0.1311    -3.6736 C.ar         1    LIG   0.0000
  14 C14         -3.8764     0.4210    -2.8295 C.ar         1    LIG   0.0000
  15 C15          0.0345     1.3787     0.0016 C.2          1    LIG   0.0000
  16 N16          0.0672     0.0683    -0.0305 N.2          1    LIG   0.0000
  17 N17          1.3285    -0.2980    -0.0563 N.2          1    LIG   0.0000
  18 C18          2.0564     0.7932    -0.0407 C.2          1    LIG   0.0000
  19 C19          3.5075     0.8351    -0.0594 C.2          1    LIG   0.0000
  20 N20          4.3139     0.5073    -1.1103 N.2          1    LIG   0.0000
  21 C21          5.5462     0.6795    -0.6939 C.2          1    LIG   0.0000
  22 C22          6.7238     0.4297    -1.5027 C.ar         1    LIG   0.0000
  23 C23          7.9878     0.6367    -0.9602 C.ar         1    LIG   0.0000
  24 C24          9.1117     0.3953    -1.7433 C.ar         1    LIG   0.0000
  25 C25          8.9649    -0.0485    -3.0540 C.ar         1    LIG   0.0000
  26 C26          7.6969    -0.2531    -3.5882 C.ar         1    LIG   0.0000
  27 C27          6.5675    -0.0134    -2.8120 C.ar         1    LIG   0.0000
  28 O28          5.5512     1.1006     0.5560 O.2          1    LIG   0.0000
  29 C29          4.3131     1.2110     0.9718 C.2          1    LIG   0.0000
  30 N30          3.9093     1.6306     2.2460 N.pl3        1    LIG   0.0000
  31 N31          3.1508     2.6700     2.4989 N.2          1    LIG   0.0000
  32 C32          2.9624     2.7836     3.7925 C.2          1    LIG   0.0000
  33 C33          2.1419     3.8604     4.4822 C.3          1    LIG   0.0000
  34 C34          3.6534     1.7318     4.4281 C.2          1    LIG   0.0000
  35 C35          4.2366     1.0284     3.4223 C.2          1    LIG   0.0000
  36 C36          5.0997    -0.2120     3.5872 C.3          1    LIG   0.0000
  37 O37          1.2649     1.8378    -0.0033 O.2          1    LIG   0.0000
  38 H           -1.0076     3.1590    -0.2649 H            1    LIG   0.0000
  39 H           -4.3828     2.8734     3.0943 H            1    LIG   0.0000
  40 H           -3.2947     1.7018     3.4263 H            1    LIG   0.0000
  41 H           -2.8638     3.2727     3.5415 H            1    LIG   0.0000
  42 H           -2.5697     0.7190    -0.6929 H            1    LIG   0.0000
  43 H           -4.3944     3.6302    -3.5292 H            1    LIG   0.0000
  44 H           -6.0428     2.6684    -4.9783 H            1    LIG   0.0000
  45 H           -6.3168     0.2968    -5.0663 H            1    LIG   0.0000
  46 H           -4.9529    -1.1232    -3.7143 H            1    LIG   0.0000
  47 H           -3.3034    -0.1691    -2.2607 H            1    LIG   0.0000
  48 H            8.0874     0.9555    -0.0177 H            1    LIG   0.0000
  49 H           10.0256     0.5407    -1.3642 H            1    LIG   0.0000
  50 H            9.7749    -0.2213    -3.6145 H            1    LIG   0.0000
  51 H            7.5972    -0.5725    -4.5306 H            1    LIG   0.0000
  52 H            5.6535    -0.1580    -3.1911 H            1    LIG   0.0000
  53 H            2.1634     3.7137     5.4711 H            1    LIG   0.0000
  54 H            2.5257     4.7591     4.2701 H            1    LIG   0.0000
  55 H            1.1964     3.8171     4.1592 H            1    LIG   0.0000
  56 H            3.7036     1.5438     5.4089 H            1    LIG   0.0000
  57 H            5.1776    -0.4371     4.5584 H            1    LIG   0.0000
  58 H            4.6794    -0.9777     3.1002 H            1    LIG   0.0000
  59 H            6.0098    -0.0372     3.2115 H            1    LIG   0.0000
@<TRIPOS>BOND
   1        1        2 1
   2        2        3 1
   3        3        4 2
   4        3        5 1
   5        5        6 1
   6        6        7 am
   7        7        8 2
   8        7        9 1
   9        9       10 ar
  10       10       11 ar
  11       11       12 ar
  12       12       13 ar
  13       13       14 ar
  14       14        9 ar
  15        5       15 1
  16       15       16 2
  17       16       17 1
  18       17       18 2
  19       18       19 1
  20       19       20 1
  21       20       21 2
  22       21       22 1
  23       22       23 ar
  24       23       24 ar
  25       24       25 ar
  26       25       26 ar
  27       26       27 ar
  28       27       22 ar
  29       21       28 1
  30       28       29 1
  31       29       19 2
  32       29       30 1
  33       30       31 1
  34       31       32 2
  35       32       33 1
  36       32       34 1
  37       34       35 2
  38       35       30 1
  39       35       36 1
  40       18       37 1
  41       37       15 1
  42        5       38 1
  43        1       39 1
  44        1       40 1
  45        1       41 1
  46        6       42 1
  47       10       43 1
  48       11       44 1
  49       12       45 1
  50       13       46 1
  51       14       47 1
  52       23       48 1
  53       24       49 1
  54       25       50 1
  55       26       51 1
  56       27       52 1
  57       33       53 1
  58       33       54 1
  59       33       55 1
  60       34       56 1
  61       36       57 1
  62       36       58 1
  63       36       59 1

@<TRIPOS>MOLECULE

  59   63
SMALL
USER_CHARGES
@<TRIPOS>ATOM
   1 C1          -2.2288     4.6160    -2.6529 C.3          1    LIG   0.0000
   2 O2          -2.1457     4.0176    -1.3678 O.3          1    LIG   0.0000
   3 C3          -1.3863     2.9531    -1.2894 C.2          1    LIG   0.0000
   4 O4          -0.8185     2.5479    -2.2659 O.2          1    LIG   0.0000
   5 C5          -1.2244     2.2311     0.0383 C.3          1    LIG   0.0000
   6 N6          -1.1166     3.2178     1.1226 N.am         1    LIG   0.0000
   7 C7          -2.0356     3.2221     2.1387 C.2          1    LIG   0.0000
   8 O8          -2.9285     2.4204     2.1436 O.2          1    LIG   0.0000
   9 C9          -1.9292     4.1955     3.2085 C.ar         1    LIG   0.0000
  10 C10         -3.0432     4.4836     3.9901 C.ar         1    LIG   0.0000
  11 C11         -2.9323     5.4191     5.0135 C.ar         1    LIG   0.0000
  12 C12         -1.7169     6.0553     5.2467 C.ar         1    LIG   0.0000
  13 C13         -0.6079     5.7608     4.4602 C.ar         1    LIG   0.0000
  14 C14         -0.7104     4.8269     3.4341 C.ar         1    LIG   0.0000
  15 C15          0.0345     1.3787     0.0016 C.2          1    LIG   0.0000
  16 N16          0.0672     0.0683    -0.0305 N.2          1    LIG   0.0000
  17 N17          1.3285    -0.2980    -0.0563 N.2          1    LIG   0.0000
  18 C18          2.0564     0.7932    -0.0407 C.2          1    LIG   0.0000
  19 C19          3.5075     0.8351    -0.0594 C.2          1    LIG   0.0000
  20 N20          4.2857     1.9559    -0.0438 N.2          1    LIG   0.0000
  21 C21          5.5292     1.5389    -0.0791 C.2          1    LIG   0.0000
  22 C22          6.6846     2.4154    -0.0895 C.ar         1    LIG   0.0000
  23 C23          7.9628     1.8689    -0.1368 C.ar         1    LIG   0.0000
  24 C24          9.0652     2.7170    -0.1456 C.ar         1    LIG   0.0000
  25 C25          8.8830     4.0961    -0.1077 C.ar         1    LIG   0.0000
  26 C26          7.6010     4.6340    -0.0608 C.ar         1    LIG   0.0000
  27 C27          6.4930     3.7927    -0.0510 C.ar         1    LIG   0.0000
  28 O28          5.5680     0.2209    -0.1113 O.2          1    LIG   0.0000
  29 C29          4.3413    -0.2405    -0.0948 C.2          1    LIG   0.0000
  30 N30          3.9720    -1.5918    -0.1185 N.pl3        1    LIG   0.0000
  31 N31          3.2699    -2.2040     0.8045 N.2          1    LIG   0.0000
  32 C32          3.1004    -3.4633     0.4773 C.2          1    LIG   0.0000
  33 C33          2.3425    -4.5004     1.2889 C.3          1    LIG   0.0000
  34 C34          3.7432    -3.6836    -0.7579 C.2          1    LIG   0.0000
  35 C35          4.2800    -2.4831    -1.1004 C.2          1    LIG   0.0000
  36 C36          5.0804    -2.1922    -2.3595 C.3          1    LIG   0.0000
  37 O37          1.2649     1.8378    -0.0033 O.2          1    LIG   0.0000
  38 H           -2.0190     1.6454     0.1983 H            1    LIG   0.0000
  39 H           -2.8276     5.4158    -2.6101 H            1    LIG   0.0000
  40 H           -1.3163     4.8982    -2.9488 H            1    LIG   0.0000
  41 H           -2.6012     3.9554    -3.3048 H            1    LIG   0.0000
  42 H           -0.3725     3.8858     1.1186 H            1    LIG   0.0000
  43 H           -3.9141     4.0232     3.8182 H            1    LIG   0.0000
  44 H           -3.7264     5.6345     5.5818 H            1    LIG   0.0000
  45 H           -1.6403     6.7273     5.9832 H            1    LIG   0.0000
  46 H            0.2632     6.2206     4.6324 H            1    LIG   0.0000
  47 H            0.0834     4.6118     2.8651 H            1    LIG   0.0000
  48 H            8.0878     0.8771    -0.1641 H            1    LIG   0.0000
  49 H            9.9890     2.3356    -0.1793 H            1    LIG   0.0000
  50 H            9.6775     4.7033    -0.1143 H            1    LIG   0.0000
  51 H            7.4758     5.6258    -0.0342 H            1    LIG   0.0000
  52 H            5.5691     4.1739    -0.0166 H            1    LIG   0.0000
  53 H            2.3663    -5.3792     0.8122 H            1    LIG   0.0000
  54 H            2.7695    -4.5972     2.1879 H            1    LIG   0.0000
  55 H            1.3930    -4.2074     1.4006 H            1    LIG   0.0000
  56 H            3.7935    -4.5399    -1.2720 H            1    LIG   0.0000
  57 H            5.1564    -3.0260    -2.9062 H            1    LIG   0.0000
  58 H            4.6169    -1.4848    -2.8931 H            1    LIG   0.0000
  59 H            5.9944    -1.8744    -2.1074 H            1    LIG   0.0000
@<TRIPOS>BOND
   1        1        2 1
   2        2        3 1
   3        3        4 2
   4        3        5 1
   5        5        6 1
   6        6        7 am
   7        7        8 2
   8        7        9 1
   9        9       10 ar
  10       10       11 ar
  11       11       12 ar
  12       12       13 ar
  13       13       14 ar
  14       14        9 ar
  15        5       15 1
  16       15       16 2
  17       16       17 1
  18       17       18 2
  19       18       19 1
  20       19       20 1
  21       20       21 2
  22       21       22 1
  23       22       23 ar
  24       23       24 ar
  25       24       25 ar
  26       25       26 ar
  27       26       27 ar
  28       27       22 ar
  29       21       28 1
  30       28       29 1
  31       29       19 2
  32       29       30 1
  33       30       31 1
  34       31       32 2
  35       32       33 1
  36       32       34 1
  37       34       35 2
  38       35       30 1
  39       35       36 1
  40       18       37 1
  41       37       15 1
  42        5       38 1
  43        1       39 1
  44        1       40 1
  45        1       41 1
  46        6       42 1
  47       10       43 1
  48       11       44 1
  49       12       45 1
  50       13       46 1
  51       14       47 1
  52       23       48 1
  53       24       49 1
  54       25       50 1
  55       26       51 1
  56       27       52 1
  57       33       53 1
  58       33       54 1
  59       33       55 1
  60       34       56 1
  61       36       57 1
  62       36       58 1
  63       36       59 1

@<TRIPOS>MOLECULE

  59   63
SMALL
USER_CHARGES
@<TRIPOS>ATOM
   1 C1          -2.2288     4.6160    -2.6529 C.3          1    LIG   0.0000
   2 O2          -2.1457     4.0176    -1.3678 O.3          1    LIG   0.0000
   3 C3          -1.3863     2.9531    -1.2894 C.2          1    LIG   0.0000
   4 O4          -0.8185     2.5479    -2.2659 O.2          1    LIG   0.0000
   5 C5          -1.2244     2.2311     0.0383 C.3          1    LIG   0.0000
   6 N6          -1.1166     3.2178     1.1226 N.am         1    LIG   0.0000
   7 C7          -2.0356     3.2221     2.1387 C.2          1    LIG   0.0000
   8 O8          -2.9285     2.4204     2.1436 O.2          1    LIG   0.0000
   9 C9          -1.9292     4.1955     3.2085 C.ar         1    LIG   0.0000
  10 C10         -3.0432     4.4836     3.9901 C.ar         1    LIG   0.0000
  11 C11         -2.9323     5.4191     5.0135 C.ar         1    LIG   0.0000
  12 C12         -1.7169     6.0553     5.2467 C.ar         1    LIG   0.0000
  13 C13         -0.6079     5.7608     4.4602 C.ar         1    LIG   0.0000
  14 C14         -0.7104     4.8269     3.4341 C.ar         1    LIG   0.0000
  15 C15          0.0345     1.3787     0.0016 C.2          1    LIG   0.0000
  16 N16          0.0672     0.0683    -0.0305 N.2          1    LIG   0.0000
  17 N17          1.3285    -0.2980    -0.0563 N.2          1    LIG   0.0000
  18 C18          2.0564     0.7932    -0.0407 C.2          1    LIG   0.0000
  19 C19          3.5075     0.8351    -0.0594 C.2          1    LIG   0.0000
  20 N20          4.2855     1.5836    -0.8940 N.2          1    LIG   0.0000
  21 C21          5.5294     1.3134    -0.5755 C.2          1    LIG   0.0000
  22 C22          6.6850     1.8925    -1.2332 C.ar         1    LIG   0.0000
  23 C23          7.9638     1.5306    -0.8226 C.ar         1    LIG   0.0000
  24 C24          9.0664     2.0914    -1.4584 C.ar         1    LIG   0.0000
  25 C25          8.8839     3.0036    -2.4934 C.ar         1    LIG   0.0000
  26 C26          7.6014     3.3596    -2.8976 C.ar         1    LIG   0.0000
  27 C27          6.4931     2.8038    -2.2665 C.ar         1    LIG   0.0000
  28 O28          5.5684     0.4420     0.4138 O.2          1    LIG   0.0000
  29 C29          4.3415     0.1331     0.7562 C.2          1    LIG   0.0000
  30 N30          3.9723    -0.7615     1.7693 N.pl3        1    LIG   0.0000
  31 N31          4.2987    -2.0306     1.8185 N.2          1    LIG   0.0000
  32 C32          3.7934    -2.5820     2.8966 C.2          1    LIG   0.0000
  33 C33          3.9480    -4.0360     3.3097 C.3          1    LIG   0.0000
  34 C34          3.0842    -1.5893     3.6031 C.2          1    LIG   0.0000
  35 C35          3.2196    -0.4581     2.8625 C.2          1    LIG   0.0000
  36 C36          2.6335     0.9031     3.2004 C.3          1    LIG   0.0000
  37 O37          1.2649     1.8378    -0.0033 O.2          1    LIG   0.0000
  38 H           -2.0190     1.6454     0.1983 H            1    LIG   0.0000
  39 H           -2.8276     5.4158    -2.6101 H            1    LIG   0.0000
  40 H           -1.3163     4.8982    -2.9488 H            1    LIG   0.0000
  41 H           -2.6012     3.9554    -3.3048 H            1    LIG   0.0000
  42 H           -0.3725     3.8858     1.1186 H            1    LIG   0.0000
  43 H           -3.9141     4.0232     3.8182 H            1    LIG   0.0000
  44 H           -3.7264     5.6345     5.5818 H            1    LIG   0.0000
  45 H           -1.6403     6.7273     5.9832 H            1    LIG   0.0000
  46 H            0.2632     6.2206     4.6324 H            1    LIG   0.0000
  47 H            0.0834     4.6118     2.8651 H            1    LIG   0.0000
  48 H            8.0890     0.8744    -0.0785 H            1    LIG   0.0000
  49 H            9.9905     1.8390    -1.1718 H            1    LIG   0.0000
  50 H            9.6786     3.4052    -2.9486 H            1    LIG   0.0000
  51 H            7.4760     4.0153    -3.6422 H            1    LIG   0.0000
  52 H            5.5688     3.0566    -2.5525 H            1    LIG   0.0000
  53 H            3.4643    -4.1910     4.1710 H            1    LIG   0.0000
  54 H            3.5634    -4.6267     2.6004 H            1    LIG   0.0000
  55 H            4.9181    -4.2471     3.4294 H            1    LIG   0.0000
  56 H            2.5878    -1.6950     4.4648 H            1    LIG   0.0000
  57 H            2.1252     0.8431     4.0595 H            1    LIG   0.0000
  58 H            3.3726     1.5698     3.2963 H            1    LIG   0.0000
  59 H            2.0171     1.1918     2.4679 H            1    LIG   0.0000
@<TRIPOS>BOND
   1        1        2 1
   2        2        3 1
   3        3        4 2
   4        3        5 1
   5        5        6 1
   6        6        7 am
   7        7        8 2
   8        7        9 1
   9        9       10 ar
  10       10       11 ar
  11       11       12 ar
  12       12       13 ar
  13       13       14 ar
  14       14        9 ar
  15        5       15 1
  16       15       16 2
  17       16       17 1
  18       17       18 2
  19       18       19 1
  20       19       20 1
  21       20       21 2
  22       21       22 1
  23       22       23 ar
  24       23       24 ar
  25       24       25 ar
  26       25       26 ar
  27       26       27 ar
  28       27       22 ar
  29       21       28 1
  30       28       29 1
  31       29       19 2
  32       29       30 1
  33       30       31 1
  34       31       32 2
  35       32       33 1
  36       32       34 1
  37       34       35 2
  38       35       30 1
  39       35       36 1
  40       18       37 1
  41       37       15 1
  42        5       38 1
  43        1       39 1
  44        1       40 1
  45        1       41 1
  46        6       42 1
  47       10       43 1
  48       11       44 1
  49       12       45 1
  50       13       46 1
  51       14       47 1
  52       23       48 1
  53       24       49 1
  54       25       50 1
  55       26       51 1
  56       27       52 1
  57       33       53 1
  58       33       54 1
  59       33       55 1
  60       34       56 1
  61       36       57 1
  62       36       58 1
  63       36       59 1

@<TRIPOS>MOLECULE

  59   63
SMALL
USER_CHARGES
@<TRIPOS>ATOM
   1 C1          -2.2288     4.6160    -2.6529 C.3          1    LIG   0.0000
   2 O2          -2.1457     4.0176    -1.3678 O.3          1    LIG   0.0000
   3 C3          -1.3863     2.9531    -1.2894 C.2          1    LIG   0.0000
   4 O4          -0.8185     2.5479    -2.2659 O.2          1    LIG   0.0000
   5 C5          -1.2244     2.2311     0.0383 C.3          1    LIG   0.0000
   6 N6          -1.1166     3.2178     1.1226 N.am         1    LIG   0.0000
   7 C7          -2.0356     3.2221     2.1387 C.2          1    LIG   0.0000
   8 O8          -2.9285     2.4204     2.1436 O.2          1    LIG   0.0000
   9 C9          -1.9292     4.1955     3.2085 C.ar         1    LIG   0.0000
  10 C10         -3.0432     4.4836     3.9901 C.ar         1    LIG   0.0000
  11 C11         -2.9323     5.4191     5.0135 C.ar         1    LIG   0.0000
  12 C12         -1.7169     6.0553     5.2467 C.ar         1    LIG   0.0000
  13 C13         -0.6079     5.7608     4.4602 C.ar         1    LIG   0.0000
  14 C14         -0.7104     4.8269     3.4341 C.ar         1    LIG   0.0000
  15 C15          0.0345     1.3787     0.0016 C.2          1    LIG   0.0000
  16 N16          0.0672     0.0683    -0.0305 N.2          1    LIG   0.0000
  17 N17          1.3285    -0.2980    -0.0563 N.2          1    LIG   0.0000
  18 C18          2.0564     0.7932    -0.0407 C.2          1    LIG   0.0000
  19 C19          3.5075     0.8351    -0.0594 C.2          1    LIG   0.0000
  20 N20          4.3418     0.4591     0.9528 N.2          1    LIG   0.0000
  21 C21          5.5621     0.6677     0.5182 C.2          1    LIG   0.0000
  22 C22          6.7604     0.4094     1.2933 C.ar         1    LIG   0.0000
  23 C23          8.0086     0.6743     0.7396 C.ar         1    LIG   0.0000
  24 C24          9.1525     0.4229     1.4898 C.ar         1    LIG   0.0000
  25 C25          9.0411    -0.0877     2.7795 C.ar         1    LIG   0.0000
  26 C26          7.7887    -0.3493     3.3254 C.ar         1    LIG   0.0000
  27 C27          6.6395    -0.1014     2.5815 C.ar         1    LIG   0.0000
  28 O28          5.5335     1.1483    -0.7098 O.2          1    LIG   0.0000
  29 C29          4.2851     1.2573    -1.0941 C.2          1    LIG   0.0000
  30 N30          3.8474     1.7304    -2.3381 N.pl3        1    LIG   0.0000
  31 N31          3.1242     1.0530    -3.1970 N.2          1    LIG   0.0000
  32 C32          2.8877     1.7852    -4.2598 C.2          1    LIG   0.0000
  33 C33          2.0861     1.3559    -5.4771 C.3          1    LIG   0.0000
  34 C34          3.5062     3.0383    -4.0730 C.2          1    LIG   0.0000
  35 C35          4.0999     2.9652    -2.8528 C.2          1    LIG   0.0000
  36 C36          4.9015     4.0705    -2.1849 C.3          1    LIG   0.0000
  37 O37          1.2649     1.8378    -0.0033 O.2          1    LIG   0.0000
  38 H           -2.0190     1.6454     0.1983 H            1    LIG   0.0000
  39 H           -2.8276     5.4158    -2.6101 H            1    LIG   0.0000
  40 H           -1.3163     4.8982    -2.9488 H            1    LIG   0.0000
  41 H           -2.6012     3.9554    -3.3048 H            1    LIG   0.0000
  42 H           -0.3725     3.8858     1.1186 H            1    LIG   0.0000
  43 H           -3.9141     4.0232     3.8182 H            1    LIG   0.0000
  44 H           -3.7264     5.6345     5.5818 H            1    LIG   0.0000
  45 H           -1.6403     6.7273     5.9832 H            1    LIG   0.0000
  46 H            0.2632     6.2206     4.6324 H            1    LIG   0.0000
  47 H            0.0834     4.6118     2.8651 H            1    LIG   0.0000
  48 H            8.0827     1.0414    -0.1877 H            1    LIG   0.0000
  49 H           10.0554     0.6092     1.1022 H            1    LIG   0.0000
  50 H            9.8654    -0.2673     3.3165 H            1    LIG   0.0000
  51 H            7.7144    -0.7158     4.2528 H            1    LIG   0.0000
  52 H            5.7365    -0.2883     2.9686 H            1    LIG   0.0000
  53 H            2.0605     2.1041    -6.1401 H            1    LIG   0.0000
  54 H            2.5165     0.5555    -5.8942 H            1    LIG   0.0000
  55 H            1.1538     1.1257    -5.1981 H            1    LIG   0.0000
  56 H            3.5077     3.8146    -4.7033 H            1    LIG   0.0000
  57 H            4.9296     4.8706    -2.7842 H            1    LIG   0.0000
  58 H            4.4694     4.3185    -1.3179 H            1    LIG   0.0000
  59 H            5.8330     3.7497    -2.0134 H            1    LIG   0.0000
@<TRIPOS>BOND
   1        1        2 1
   2        2        3 1
   3        3        4 2
   4        3        5 1
   5        5        6 1
   6        6        7 am
   7        7        8 2
   8        7        9 1
   9        9       10 ar
  10       10       11 ar
  11       11       12 ar
  12       12       13 ar
  13       13       14 ar
  14       14        9 ar
  15        5       15 1
  16       15       16 2
  17       16       17 1
  18       17       18 2
  19       18       19 1
  20       19       20 1
  21       20       21 2
  22       21       22 1
  23       22       23 ar
  24       23       24 ar
  25       24       25 ar
  26       25       26 ar
  27       26       27 ar
  28       27       22 ar
  29       21       28 1
  30       28       29 1
  31       29       19 2
  32       29       30 1
  33       30       31 1
  34       31       32 2
  35       32       33 1
  36       32       34 1
  37       34       35 2
  38       35       30 1
  39       35       36 1
  40       18       37 1
  41       37       15 1
  42        5       38 1
  43        1       39 1
  44        1       40 1
  45        1       41 1
  46        6       42 1
  47       10       43 1
  48       11       44 1
  49       12       45 1
  50       13       46 1
  51       14       47 1
  52       23       48 1
  53       24       49 1
  54       25       50 1
  55       26       51 1
  56       27       52 1
  57       33       53 1
  58       33       54 1
  59       33       55 1
  60       34       56 1
  61       36       57 1
  62       36       58 1
  63       36       59 1

@<TRIPOS>MOLECULE

  59   63
SMALL
USER_CHARGES
@<TRIPOS>ATOM
   1 C1          -2.2288     4.6160    -2.6529 C.3          1    LIG   0.0000
   2 O2          -2.1457     4.0176    -1.3678 O.3          1    LIG   0.0000
   3 C3          -1.3863     2.9531    -1.2894 C.2          1    LIG   0.0000
   4 O4          -0.8185     2.5479    -2.2659 O.2          1    LIG   0.0000
   5 C5          -1.2244     2.2311     0.0383 C.3          1    LIG   0.0000
   6 N6          -1.1166     3.2178     1.1226 N.am         1    LIG   0.0000
   7 C7          -2.0356     3.2221     2.1387 C.2          1    LIG   0.0000
   8 O8          -2.9285     2.4204     2.1436 O.2          1    LIG   0.0000
   9 C9          -1.9292     4.1955     3.2085 C.ar         1    LIG   0.0000
  10 C10         -3.0432     4.4836     3.9901 C.ar         1    LIG   0.0000
  11 C11         -2.9323     5.4191     5.0135 C.ar         1    LIG   0.0000
  12 C12         -1.7169     6.0553     5.2467 C.ar         1    LIG   0.0000
  13 C13         -0.6079     5.7608     4.4602 C.ar         1    LIG   0.0000
  14 C14         -0.7104     4.8269     3.4341 C.ar         1    LIG   0.0000
  15 C15          0.0345     1.3787     0.0016 C.2          1    LIG   0.0000
  16 N16          0.0672     0.0683    -0.0305 N.2          1    LIG   0.0000
  17 N17          1.3285    -0.2980    -0.0563 N.2          1    LIG   0.0000
  18 C18          2.0564     0.7932    -0.0407 C.2          1    LIG   0.0000
  19 C19          3.5075     0.8351    -0.0594 C.2          1    LIG   0.0000
  20 N20          4.3139     0.5073    -1.1103 N.2          1    LIG   0.0000
  21 C21          5.5462     0.6795    -0.6939 C.2          1    LIG   0.0000
  22 C22          6.7238     0.4297    -1.5027 C.ar         1    LIG   0.0000
  23 C23          7.9878     0.6367    -0.9602 C.ar         1    LIG   0.0000
  24 C24          9.1117     0.3953    -1.7433 C.ar         1    LIG   0.0000
  25 C25          8.9649    -0.0485    -3.0540 C.ar         1    LIG   0.0000
  26 C26          7.6969    -0.2531    -3.5882 C.ar         1    LIG   0.0000
  27 C27          6.5675    -0.0134    -2.8120 C.ar         1    LIG   0.0000
  28 O28          5.5512     1.1006     0.5560 O.2          1    LIG   0.0000
  29 C29          4.3131     1.2110     0.9718 C.2          1    LIG   0.0000
  30 N30          3.9093     1.6306     2.2460 N.pl3        1    LIG   0.0000
  31 N31          3.1508     2.6700     2.4989 N.2          1    LIG   0.0000
  32 C32          2.9624     2.7836     3.7925 C.2          1    LIG   0.0000
  33 C33          2.1419     3.8604     4.4822 C.3          1    LIG   0.0000
  34 C34          3.6534     1.7318     4.4281 C.2          1    LIG   0.0000
  35 C35          4.2366     1.0284     3.4223 C.2          1    LIG   0.0000
  36 C36          5.0997    -0.2120     3.5872 C.3          1    LIG   0.0000
  37 O37          1.2649     1.8378    -0.0033 O.2          1    LIG   0.0000
  38 H           -2.0190     1.6454     0.1983 H            1    LIG   0.0000
  39 H           -2.8276     5.4158    -2.6101 H            1    LIG   0.0000
  40 H           -1.3163     4.8982    -2.9488 H            1    LIG   0.0000
  41 H           -2.6012     3.9554    -3.3048 H            1    LIG   0.0000
  42 H           -0.3725     3.8858     1.1186 H            1    LIG   0.0000
  43 H           -3.9141     4.0232     3.8182 H            1    LIG   0.0000
  44 H           -3.7264     5.6345     5.5818 H            1    LIG   0.0000
  45 H           -1.6403     6.7273     5.9832 H            1    LIG   0.0000
  46 H            0.2632     6.2206     4.6324 H            1    LIG   0.0000
  47 H            0.0834     4.6118     2.8651 H            1    LIG   0.0000
  48 H            8.0874     0.9555    -0.0177 H            1    LIG   0.0000
  49 H           10.0256     0.5407    -1.3642 H            1    LIG   0.0000
  50 H            9.7749    -0.2213    -3.6145 H            1    LIG   0.0000
  51 H            7.5972    -0.5725    -4.5306 H            1    LIG   0.0000
  52 H            5.6535    -0.1580    -3.1911 H            1    LIG   0.0000
  53 H            2.1634     3.7137     5.4711 H            1    LIG   0.0000
  54 H            2.5257     4.7591     4.2701 H            1    LIG   0.0000
  55 H            1.1964     3.8171     4.1592 H            1    LIG   0.0000
  56 H            3.7036     1.5438     5.4089 H            1    LIG   0.0000
  57 H            5.1776    -0.4371     4.5584 H            1    LIG   0.0000
  58 H            4.6794    -0.9777     3.1002 H            1    LIG   0.0000
  59 H            6.0098    -0.0372     3.2115 H            1    LIG   0.0000
@<TRIPOS>BOND
   1        1        2 1
   2        2        3 1
   3        3        4 2
   4        3        5 1
   5        5        6 1
   6        6        7 am
   7        7        8 2
   8        7        9 1
   9        9       10 ar
  10       10       11 ar
  11       11       12 ar
  12       12       13 ar
  13       13       14 ar
  14       14        9 ar
  15        5       15 1
  16       15       16 2
  17       16       17 1
  18       17       18 2
  19       18       19 1
  20       19       20 1
  21       20       21 2
  22       21       22 1
  23       22       23 ar
  24       23       24 ar
  25       24       25 ar
  26       25       26 ar
  27       26       27 ar
  28       27       22 ar
  29       21       28 1
  30       28       29 1
  31       29       19 2
  32       29       30 1
  33       30       31 1
  34       31       32 2
  35       32       33 1
  36       32       34 1
  37       34       35 2
  38       35       30 1
  39       35       36 1
  40       18       37 1
  41       37       15 1
  42        5       38 1
  43        1       39 1
  44        1       40 1
  45        1       41 1
  46        6       42 1
  47       10       43 1
  48       11       44 1
  49       12       45 1
  50       13       46 1
  51       14       47 1
  52       23       48 1
  53       24       49 1
  54       25       50 1
  55       26       51 1
  56       27       52 1
  57       33       53 1
  58       33       54 1
  59       33       55 1
  60       34       56 1
  61       36       57 1
  62       36       58 1
  63       36       59 1

@<TRIPOS>MOLECULE

  59   63
SMALL
USER_CHARGES
@<TRIPOS>ATOM
   1 C1          -1.3994     5.6620     1.5003 C.3          1    LIG   0.0000
   2 O2          -1.8253     4.3871     1.0425 O.3          1    LIG   0.0000
   3 C3          -0.8822     3.6181     0.5574 C.2          1    LIG   0.0000
   4 O4           0.2520     4.0087     0.5229 O.2          1    LIG   0.0000
   5 C5          -1.2244     2.2311     0.0383 C.3          1    LIG   0.0000
   6 N6          -2.2140     1.6056     0.9273 N.am         1    LIG   0.0000
   7 C7          -3.4354     1.2281     0.4348 C.2          1    LIG   0.0000
   8 O8          -3.6975     1.4082    -0.7223 O.2          1    LIG   0.0000
   9 C9          -4.4117     0.6110     1.3119 C.ar         1    LIG   0.0000
  10 C10         -5.7555     0.6088     0.9526 C.ar         1    LIG   0.0000
  11 C11         -6.6851     0.0153     1.8001 C.ar         1    LIG   0.0000
  12 C12         -6.2674    -0.5680     2.9925 C.ar         1    LIG   0.0000
  13 C13         -4.9215    -0.5614     3.3437 C.ar         1    LIG   0.0000
  14 C14         -3.9852     0.0307     2.5020 C.ar         1    LIG   0.0000
  15 C15          0.0345     1.3787     0.0016 C.2          1    LIG   0.0000
  16 N16          0.0672     0.0683    -0.0305 N.2          1    LIG   0.0000
  17 N17          1.3285    -0.2980    -0.0563 N.2          1    LIG   0.0000
  18 C18          2.0564     0.7932    -0.0407 C.2          1    LIG   0.0000
  19 C19          3.5075     0.8351    -0.0594 C.2          1    LIG   0.0000
  20 N20          4.3083     1.5443     0.7879 N.2          1    LIG   0.0000
  21 C21          5.5424     1.3037     0.4126 C.2          1    LIG   0.0000
  22 C22          6.7148     1.8759     1.0461 C.ar         1    LIG   0.0000
  23 C23          7.9807     1.5612     0.5631 C.ar         1    LIG   0.0000
  24 C24          9.0996     2.1139     1.1772 C.ar         1    LIG   0.0000
  25 C25          8.9460     2.9717     2.2622 C.ar         1    LIG   0.0000
  26 C26          7.6762     3.2811     2.7384 C.ar         1    LIG   0.0000
  27 C27          6.5517     2.7320     2.1303 C.ar         1    LIG   0.0000
  28 O28          5.5540     0.4808    -0.6181 O.2          1    LIG   0.0000
  29 C29          4.3187     0.1709    -0.9279 C.2          1    LIG   0.0000
  30 N30          3.9218    -0.6801    -1.9677 N.pl3        1    LIG   0.0000
  31 N31          3.1650    -0.3383    -2.9825 N.2          1    LIG   0.0000
  32 C32          2.9838    -1.3691    -3.7740 C.2          1    LIG   0.0000
  33 C33          2.1661    -1.3762    -5.0545 C.3          1    LIG   0.0000
  34 C34          3.6810    -2.4662    -3.2282 C.2          1    LIG   0.0000
  35 C35          4.2581    -1.9935    -2.0924 C.2          1    LIG   0.0000
  36 C36          5.1260    -2.7938    -1.1349 C.3          1    LIG   0.0000
  37 O37          1.2649     1.8378    -0.0033 O.2          1    LIG   0.0000
  38 H           -1.6042     2.3046    -0.8838 H            1    LIG   0.0000
  39 H           -2.1863     6.1707     1.8496 H            1    LIG   0.0000
  40 H           -0.7265     5.5462     2.2308 H            1    LIG   0.0000
  41 H           -0.9856     6.1670     0.7428 H            1    LIG   0.0000
  42 H           -1.9956     1.4555     1.8916 H            1    LIG   0.0000
  43 H           -6.0500     1.0292     0.0944 H            1    LIG   0.0000
  44 H           -7.6539     0.0078     1.5525 H            1    LIG   0.0000
  45 H           -6.9381    -0.9939     3.5998 H            1    LIG   0.0000
  46 H           -4.6267    -0.9824     4.2016 H            1    LIG   0.0000
  47 H           -3.0164     0.0390     2.7498 H            1    LIG   0.0000
  48 H            8.0852     0.9444    -0.2170 H            1    LIG   0.0000
  49 H           10.0148     1.8949     0.8389 H            1    LIG   0.0000
  50 H            9.7524     3.3676     2.7016 H            1    LIG   0.0000
  51 H            7.5715     3.8985     3.5181 H            1    LIG   0.0000
  52 H            5.6365     2.9504     2.4689 H            1    LIG   0.0000
  53 H            2.1932    -2.2889    -5.4623 H            1    LIG   0.0000
  54 H            1.2189    -1.1320    -4.8466 H            1    LIG   0.0000
  55 H            2.5480    -0.7123    -5.6976 H            1    LIG   0.0000
  56 H            3.7385    -3.3936    -3.5978 H            1    LIG   0.0000
  57 H            5.2103    -3.7332    -1.4674 H            1    LIG   0.0000
  58 H            6.0333    -2.3770    -1.0798 H            1    LIG   0.0000
  59 H            4.7053    -2.7979    -0.2277 H            1    LIG   0.0000
@<TRIPOS>BOND
   1        1        2 1
   2        2        3 1
   3        3        4 2
   4        3        5 1
   5        5        6 1
   6        6        7 am
   7        7        8 2
   8        7        9 1
   9        9       10 ar
  10       10       11 ar
  11       11       12 ar
  12       12       13 ar
  13       13       14 ar
  14       14        9 ar
  15        5       15 1
  16       15       16 2
  17       16       17 1
  18       17       18 2
  19       18       19 1
  20       19       20 1
  21       20       21 2
  22       21       22 1
  23       22       23 ar
  24       23       24 ar
  25       24       25 ar
  26       25       26 ar
  27       26       27 ar
  28       27       22 ar
  29       21       28 1
  30       28       29 1
  31       29       19 2
  32       29       30 1
  33       30       31 1
  34       31       32 2
  35       32       33 1
  36       32       34 1
  37       34       35 2
  38       35       30 1
  39       35       36 1
  40       18       37 1
  41       37       15 1
  42        5       38 1
  43        1       39 1
  44        1       40 1
  45        1       41 1
  46        6       42 1
  47       10       43 1
  48       11       44 1
  49       12       45 1
  50       13       46 1
  51       14       47 1
  52       23       48 1
  53       24       49 1
  54       25       50 1
  55       26       51 1
  56       27       52 1
  57       33       53 1
  58       33       54 1
  59       33       55 1
  60       34       56 1
  61       36       57 1
  62       36       58 1
  63       36       59 1

@<TRIPOS>MOLECULE

  59   63
SMALL
USER_CHARGES
@<TRIPOS>ATOM
   1 C1          -1.3994     5.6620     1.5003 C.3          1    LIG   0.0000
   2 O2          -1.8253     4.3871     1.0425 O.3          1    LIG   0.0000
   3 C3          -0.8822     3.6181     0.5574 C.2          1    LIG   0.0000
   4 O4           0.2520     4.0087     0.5229 O.2          1    LIG   0.0000
   5 C5          -1.2244     2.2311     0.0383 C.3          1    LIG   0.0000
   6 N6          -2.2140     1.6056     0.9273 N.am         1    LIG   0.0000
   7 C7          -3.4354     1.2281     0.4348 C.2          1    LIG   0.0000
   8 O8          -3.6975     1.4082    -0.7223 O.2          1    LIG   0.0000
   9 C9          -4.4117     0.6110     1.3119 C.ar         1    LIG   0.0000
  10 C10         -5.4504    -0.1371     0.7674 C.ar         1    LIG   0.0000
  11 C11         -6.3826    -0.7248     1.6160 C.ar         1    LIG   0.0000
  12 C12         -6.2705    -0.5618     2.9934 C.ar         1    LIG   0.0000
  13 C13         -5.2283     0.1878     3.5293 C.ar         1    LIG   0.0000
  14 C14         -4.2919     0.7796     2.6875 C.ar         1    LIG   0.0000
  15 C15          0.0345     1.3787     0.0016 C.2          1    LIG   0.0000
  16 N16          0.0672     0.0683    -0.0305 N.2          1    LIG   0.0000
  17 N17          1.3285    -0.2980    -0.0563 N.2          1    LIG   0.0000
  18 C18          2.0564     0.7932    -0.0407 C.2          1    LIG   0.0000
  19 C19          3.5075     0.8351    -0.0594 C.2          1    LIG   0.0000
  20 N20          4.2855     1.5836    -0.8940 N.2          1    LIG   0.0000
  21 C21          5.5294     1.3134    -0.5755 C.2          1    LIG   0.0000
  22 C22          6.6850     1.8925    -1.2332 C.ar         1    LIG   0.0000
  23 C23          7.9638     1.5306    -0.8226 C.ar         1    LIG   0.0000
  24 C24          9.0664     2.0914    -1.4584 C.ar         1    LIG   0.0000
  25 C25          8.8839     3.0036    -2.4934 C.ar         1    LIG   0.0000
  26 C26          7.6014     3.3596    -2.8976 C.ar         1    LIG   0.0000
  27 C27          6.4931     2.8038    -2.2665 C.ar         1    LIG   0.0000
  28 O28          5.5684     0.4420     0.4138 O.2          1    LIG   0.0000
  29 C29          4.3415     0.1331     0.7562 C.2          1    LIG   0.0000
  30 N30          3.9723    -0.7615     1.7693 N.pl3        1    LIG   0.0000
  31 N31          3.2678    -1.8542     1.5986 N.2          1    LIG   0.0000
  32 C32          3.0994    -2.4633     2.7485 C.2          1    LIG   0.0000
  33 C33          2.3383    -3.7601     2.9667 C.3          1    LIG   0.0000
  34 C34          3.7487    -1.7045     3.7435 C.2          1    LIG   0.0000
  35 C35          4.2857    -0.6417     3.0888 C.2          1    LIG   0.0000
  36 C36          5.0938     0.4789     3.7224 C.3          1    LIG   0.0000
  37 O37          1.2649     1.8378    -0.0033 O.2          1    LIG   0.0000
  38 H           -1.6042     2.3046    -0.8838 H            1    LIG   0.0000
  39 H           -2.1863     6.1707     1.8496 H            1    LIG   0.0000
  40 H           -0.7265     5.5462     2.2308 H            1    LIG   0.0000
  41 H           -0.9856     6.1670     0.7428 H            1    LIG   0.0000
  42 H           -1.9956     1.4555     1.8916 H            1    LIG   0.0000
  43 H           -5.5260    -0.2511    -0.2232 H            1    LIG   0.0000
  44 H           -7.1338    -1.2647     1.2361 H            1    LIG   0.0000
  45 H           -6.9422    -0.9856     3.6010 H            1    LIG   0.0000
  46 H           -5.1522     0.3013     4.5199 H            1    LIG   0.0000
  47 H           -3.5411     1.3201     3.0671 H            1    LIG   0.0000
  48 H            8.0890     0.8744    -0.0785 H            1    LIG   0.0000
  49 H            9.9905     1.8390    -1.1718 H            1    LIG   0.0000
  50 H            9.6786     3.4052    -2.9486 H            1    LIG   0.0000
  51 H            7.4760     4.0153    -3.6422 H            1    LIG   0.0000
  52 H            5.5688     3.0566    -2.5525 H            1    LIG   0.0000
  53 H            2.3637    -4.0025     3.9365 H            1    LIG   0.0000
  54 H            1.3883    -3.6418     2.6775 H            1    LIG   0.0000
  55 H            2.7618    -4.4896     2.4296 H            1    LIG   0.0000
  56 H            3.8025    -1.9053     4.7217 H            1    LIG   0.0000
  57 H            5.1726     0.3179     4.7062 H            1    LIG   0.0000
  58 H            6.0065     0.5035     3.3145 H            1    LIG   0.0000
  59 H            4.6340     1.3526     3.5634 H            1    LIG   0.0000
@<TRIPOS>BOND
   1        1        2 1
   2        2        3 1
   3        3        4 2
   4        3        5 1
   5        5        6 1
   6        6        7 am
   7        7        8 2
   8        7        9 1
   9        9       10 ar
  10       10       11 ar
  11       11       12 ar
  12       12       13 ar
  13       13       14 ar
  14       14        9 ar
  15        5       15 1
  16       15       16 2
  17       16       17 1
  18       17       18 2
  19       18       19 1
  20       19       20 1
  21       20       21 2
  22       21       22 1
  23       22       23 ar
  24       23       24 ar
  25       24       25 ar
  26       25       26 ar
  27       26       27 ar
  28       27       22 ar
  29       21       28 1
  30       28       29 1
  31       29       19 2
  32       29       30 1
  33       30       31 1
  34       31       32 2
  35       32       33 1
  36       32       34 1
  37       34       35 2
  38       35       30 1
  39       35       36 1
  40       18       37 1
  41       37       15 1
  42        5       38 1
  43        1       39 1
  44        1       40 1
  45        1       41 1
  46        6       42 1
  47       10       43 1
  48       11       44 1
  49       12       45 1
  50       13       46 1
  51       14       47 1
  52       23       48 1
  53       24       49 1
  54       25       50 1
  55       26       51 1
  56       27       52 1
  57       33       53 1
  58       33       54 1
  59       33       55 1
  60       34       56 1
  61       36       57 1
  62       36       58 1
  63       36       59 1

@<TRIPOS>MOLECULE

  59   63
SMALL
USER_CHARGES
@<TRIPOS>ATOM
   1 C1          -4.6357     0.9828    -0.8245 C.3          1    LIG   0.0000
   2 O2          -3.5639     1.8908    -0.6163 O.3          1    LIG   0.0000
   3 C3          -2.4386     1.3528    -0.2159 C.2          1    LIG   0.0000
   4 O4          -2.3664     0.1665    -0.0499 O.2          1    LIG   0.0000
   5 C5          -1.2244     2.2311     0.0383 C.3          1    LIG   0.0000
   6 N6          -1.1441     3.2686    -1.0000 N.am         1    LIG   0.0000
   7 C7          -1.1889     4.5925    -0.6503 C.2          1    LIG   0.0000
   8 O8          -1.2938     4.9051     0.5035 O.2          1    LIG   0.0000
   9 C9          -1.1097     5.6161    -1.6747 C.ar         1    LIG   0.0000
  10 C10         -1.5627     6.9021    -1.3991 C.ar         1    LIG   0.0000
  11 C11         -1.4836     7.8773    -2.3876 C.ar         1    LIG   0.0000
  12 C12         -0.9554     7.5623    -3.6359 C.ar         1    LIG   0.0000
  13 C13         -0.5045     6.2736    -3.9027 C.ar         1    LIG   0.0000
  14 C14         -0.5807     5.2920    -2.9197 C.ar         1    LIG   0.0000
  15 C15          0.0345     1.3787     0.0016 C.2          1    LIG   0.0000
  16 N16          0.0672     0.0683    -0.0305 N.2          1    LIG   0.0000
  17 N17          1.3285    -0.2980    -0.0563 N.2          1    LIG   0.0000
  18 C18          2.0564     0.7932    -0.0407 C.2          1    LIG   0.0000
  19 C19          3.5075     0.8351    -0.0594 C.2          1    LIG   0.0000
  20 N20          4.2857     1.9559    -0.0438 N.2          1    LIG   0.0000
  21 C21          5.5292     1.5389    -0.0791 C.2          1    LIG   0.0000
  22 C22          6.6846     2.4154    -0.0895 C.ar         1    LIG   0.0000
  23 C23          7.9628     1.8689    -0.1368 C.ar         1    LIG   0.0000
  24 C24          9.0652     2.7170    -0.1456 C.ar         1    LIG   0.0000
  25 C25          8.8830     4.0961    -0.1077 C.ar         1    LIG   0.0000
  26 C26          7.6010     4.6340    -0.0608 C.ar         1    LIG   0.0000
  27 C27          6.4930     3.7927    -0.0510 C.ar         1    LIG   0.0000
  28 O28          5.5680     0.2209    -0.1113 O.2          1    LIG   0.0000
  29 C29          4.3413    -0.2405    -0.0948 C.2          1    LIG   0.0000
  30 N30          3.9720    -1.5918    -0.1185 N.pl3        1    LIG   0.0000
  31 N31          3.2427    -2.1641    -1.0459 N.2          1    LIG   0.0000
  32 C32          3.0822    -3.4365    -0.7685 C.2          1    LIG   0.0000
  33 C33          2.2991    -4.4379    -1.6007 C.3          1    LIG   0.0000
  34 C34          3.7641    -3.7102     0.4347 C.2          1    LIG   0.0000
  35 C35          4.3108    -2.5251     0.8130 C.2          1    LIG   0.0000
  36 C36          5.1525    -2.2893     2.0566 C.3          1    LIG   0.0000
  37 O37          1.2649     1.8378    -0.0033 O.2          1    LIG   0.0000
  38 H           -1.3080     2.6637     0.9360 H            1    LIG   0.0000
  39 H           -5.4451     1.4863    -1.1267 H            1    LIG   0.0000
  40 H           -4.3770     0.3167    -1.5241 H            1    LIG   0.0000
  41 H           -4.8396     0.5061     0.0305 H            1    LIG   0.0000
  42 H           -1.0567     3.0081    -1.9615 H            1    LIG   0.0000
  43 H           -1.9411     7.1229    -0.5002 H            1    LIG   0.0000
  44 H           -1.8063     8.8053    -2.2012 H            1    LIG   0.0000
  45 H           -0.8998     8.2656    -4.3446 H            1    LIG   0.0000
  46 H           -0.1255     6.0528    -4.8013 H            1    LIG   0.0000
  47 H           -0.2587     4.3638    -3.1062 H            1    LIG   0.0000
  48 H            8.0878     0.8771    -0.1641 H            1    LIG   0.0000
  49 H            9.9890     2.3356    -0.1793 H            1    LIG   0.0000
  50 H            9.6775     4.7033    -0.1143 H            1    LIG   0.0000
  51 H            7.4758     5.6258    -0.0342 H            1    LIG   0.0000
  52 H            5.5691     4.1739    -0.0166 H            1    LIG   0.0000
  53 H            2.3367    -5.3364    -1.1634 H            1    LIG   0.0000
  54 H            1.3468    -4.1408    -1.6706 H            1    LIG   0.0000
  55 H            2.6984    -4.4955    -2.5157 H            1    LIG   0.0000
  56 H            3.8310    -4.5884     0.9083 H            1    LIG   0.0000
  57 H            5.2452    -3.1462     2.5637 H            1    LIG   0.0000
  58 H            6.0582    -1.9607     1.7888 H            1    LIG   0.0000
  59 H            4.7077    -1.6059     2.6355 H            1    LIG   0.0000
@<TRIPOS>BOND
   1        1        2 1
   2        2        3 1
   3        3        4 2
   4        3        5 1
   5        5        6 1
   6        6        7 am
   7        7        8 2
   8        7        9 1
   9        9       10 ar
  10       10       11 ar
  11       11       12 ar
  12       12       13 ar
  13       13       14 ar
  14       14        9 ar
  15        5       15 1
  16       15       16 2
  17       16       17 1
  18       17       18 2
  19       18       19 1
  20       19       20 1
  21       20       21 2
  22       21       22 1
  23       22       23 ar
  24       23       24 ar
  25       24       25 ar
  26       25       26 ar
  27       26       27 ar
  28       27       22 ar
  29       21       28 1
  30       28       29 1
  31       29       19 2
  32       29       30 1
  33       30       31 1
  34       31       32 2
  35       32       33 1
  36       32       34 1
  37       34       35 2
  38       35       30 1
  39       35       36 1
  40       18       37 1
  41       37       15 1
  42        5       38 1
  43        1       39 1
  44        1       40 1
  45        1       41 1
  46        6       42 1
  47       10       43 1
  48       11       44 1
  49       12       45 1
  50       13       46 1
  51       14       47 1
  52       23       48 1
  53       24       49 1
  54       25       50 1
  55       26       51 1
  56       27       52 1
  57       33       53 1
  58       33       54 1
  59       33       55 1
  60       34       56 1
  61       36       57 1
  62       36       58 1
  63       36       59 1

@<TRIPOS>MOLECULE

  59   63
SMALL
USER_CHARGES
@<TRIPOS>ATOM
   1 C1          -4.6357     0.9828    -0.8245 C.3          1    LIG   0.0000
   2 O2          -3.5639     1.8908    -0.6163 O.3          1    LIG   0.0000
   3 C3          -2.4386     1.3528    -0.2159 C.2          1    LIG   0.0000
   4 O4          -2.3664     0.1665    -0.0499 O.2          1    LIG   0.0000
   5 C5          -1.2244     2.2311     0.0383 C.3          1    LIG   0.0000
   6 N6          -1.1441     3.2686    -1.0000 N.am         1    LIG   0.0000
   7 C7          -1.1889     4.5925    -0.6503 C.2          1    LIG   0.0000
   8 O8          -1.2938     4.9051     0.5035 O.2          1    LIG   0.0000
   9 C9          -1.1097     5.6161    -1.6747 C.ar         1    LIG   0.0000
  10 C10         -1.5627     6.9021    -1.3991 C.ar         1    LIG   0.0000
  11 C11         -1.4836     7.8773    -2.3876 C.ar         1    LIG   0.0000
  12 C12         -0.9554     7.5623    -3.6359 C.ar         1    LIG   0.0000
  13 C13         -0.5045     6.2736    -3.9027 C.ar         1    LIG   0.0000
  14 C14         -0.5807     5.2920    -2.9197 C.ar         1    LIG   0.0000
  15 C15          0.0345     1.3787     0.0016 C.2          1    LIG   0.0000
  16 N16          0.0672     0.0683    -0.0305 N.2          1    LIG   0.0000
  17 N17          1.3285    -0.2980    -0.0563 N.2          1    LIG   0.0000
  18 C18          2.0564     0.7932    -0.0407 C.2          1    LIG   0.0000
  19 C19          3.5075     0.8351    -0.0594 C.2          1    LIG   0.0000
  20 N20          4.3418     0.4591     0.9528 N.2          1    LIG   0.0000
  21 C21          5.5621     0.6677     0.5182 C.2          1    LIG   0.0000
  22 C22          6.7604     0.4094     1.2933 C.ar         1    LIG   0.0000
  23 C23          8.0086     0.6743     0.7396 C.ar         1    LIG   0.0000
  24 C24          9.1525     0.4229     1.4898 C.ar         1    LIG   0.0000
  25 C25          9.0411    -0.0877     2.7795 C.ar         1    LIG   0.0000
  26 C26          7.7887    -0.3493     3.3254 C.ar         1    LIG   0.0000
  27 C27          6.6395    -0.1014     2.5815 C.ar         1    LIG   0.0000
  28 O28          5.5335     1.1483    -0.7098 O.2          1    LIG   0.0000
  29 C29          4.2851     1.2573    -1.0941 C.2          1    LIG   0.0000
  30 N30          3.8474     1.7304    -2.3381 N.pl3        1    LIG   0.0000
  31 N31          3.1242     1.0530    -3.1970 N.2          1    LIG   0.0000
  32 C32          2.8877     1.7852    -4.2598 C.2          1    LIG   0.0000
  33 C33          2.0861     1.3559    -5.4771 C.3          1    LIG   0.0000
  34 C34          3.5062     3.0383    -4.0730 C.2          1    LIG   0.0000
  35 C35          4.0999     2.9652    -2.8528 C.2          1    LIG   0.0000
  36 C36          4.9015     4.0705    -2.1849 C.3          1    LIG   0.0000
  37 O37          1.2649     1.8378    -0.0033 O.2          1    LIG   0.0000
  38 H           -1.3080     2.6637     0.9360 H            1    LIG   0.0000
  39 H           -5.4451     1.4863    -1.1267 H            1    LIG   0.0000
  40 H           -4.3770     0.3167    -1.5241 H            1    LIG   0.0000
  41 H           -4.8396     0.5061     0.0305 H            1    LIG   0.0000
  42 H           -1.0567     3.0081    -1.9615 H            1    LIG   0.0000
  43 H           -1.9411     7.1229    -0.5002 H            1    LIG   0.0000
  44 H           -1.8063     8.8053    -2.2012 H            1    LIG   0.0000
  45 H           -0.8998     8.2656    -4.3446 H            1    LIG   0.0000
  46 H           -0.1255     6.0528    -4.8013 H            1    LIG   0.0000
  47 H           -0.2587     4.3638    -3.1062 H            1    LIG   0.0000
  48 H            8.0827     1.0414    -0.1877 H            1    LIG   0.0000
  49 H           10.0554     0.6092     1.1022 H            1    LIG   0.0000
  50 H            9.8654    -0.2673     3.3165 H            1    LIG   0.0000
  51 H            7.7144    -0.7158     4.2528 H            1    LIG   0.0000
  52 H            5.7365    -0.2883     2.9686 H            1    LIG   0.0000
  53 H            2.0605     2.1041    -6.1401 H            1    LIG   0.0000
  54 H            2.5165     0.5555    -5.8942 H            1    LIG   0.0000
  55 H            1.1538     1.1257    -5.1981 H            1    LIG   0.0000
  56 H            3.5077     3.8146    -4.7033 H            1    LIG   0.0000
  57 H            4.9296     4.8706    -2.7842 H            1    LIG   0.0000
  58 H            4.4694     4.3185    -1.3179 H            1    LIG   0.0000
  59 H            5.8330     3.7497    -2.0134 H            1    LIG   0.0000
@<TRIPOS>BOND
   1        1        2 1
   2        2        3 1
   3        3        4 2
   4        3        5 1
   5        5        6 1
   6        6        7 am
   7        7        8 2
   8        7        9 1
   9        9       10 ar
  10       10       11 ar
  11       11       12 ar
  12       12       13 ar
  13       13       14 ar
  14       14        9 ar
  15        5       15 1
  16       15       16 2
  17       16       17 1
  18       17       18 2
  19       18       19 1
  20       19       20 1
  21       20       21 2
  22       21       22 1
  23       22       23 ar
  24       23       24 ar
  25       24       25 ar
  26       25       26 ar
  27       26       27 ar
  28       27       22 ar
  29       21       28 1
  30       28       29 1
  31       29       19 2
  32       29       30 1
  33       30       31 1
  34       31       32 2
  35       32       33 1
  36       32       34 1
  37       34       35 2
  38       35       30 1
  39       35       36 1
  40       18       37 1
  41       37       15 1
  42        5       38 1
  43        1       39 1
  44        1       40 1
  45        1       41 1
  46        6       42 1
  47       10       43 1
  48       11       44 1
  49       12       45 1
  50       13       46 1
  51       14       47 1
  52       23       48 1
  53       24       49 1
  54       25       50 1
  55       26       51 1
  56       27       52 1
  57       33       53 1
  58       33       54 1
  59       33       55 1
  60       34       56 1
  61       36       57 1
  62       36       58 1
  63       36       59 1

@<TRIPOS>MOLECULE

  59   63
SMALL
USER_CHARGES
@<TRIPOS>ATOM
   1 C1          -4.6357     0.9828    -0.8245 C.3          1    LIG   0.0000
   2 O2          -3.5639     1.8908    -0.6163 O.3          1    LIG   0.0000
   3 C3          -2.4386     1.3528    -0.2159 C.2          1    LIG   0.0000
   4 O4          -2.3664     0.1665    -0.0499 O.2          1    LIG   0.0000
   5 C5          -1.2244     2.2311     0.0383 C.3          1    LIG   0.0000
   6 N6          -1.1441     3.2686    -1.0000 N.am         1    LIG   0.0000
   7 C7          -1.1889     4.5925    -0.6503 C.2          1    LIG   0.0000
   8 O8          -1.2938     4.9051     0.5035 O.2          1    LIG   0.0000
   9 C9          -1.1097     5.6161    -1.6747 C.ar         1    LIG   0.0000
  10 C10         -0.7391     6.9108    -1.3266 C.ar         1    LIG   0.0000
  11 C11         -0.6663     7.8864    -2.3154 C.ar         1    LIG   0.0000
  12 C12         -0.9624     7.5627    -3.6360 C.ar         1    LIG   0.0000
  13 C13         -1.3319     6.2652    -3.9751 C.ar         1    LIG   0.0000
  14 C14         -1.4077     5.2836    -2.9921 C.ar         1    LIG   0.0000
  15 C15          0.0345     1.3787     0.0016 C.2          1    LIG   0.0000
  16 N16          0.0672     0.0683    -0.0305 N.2          1    LIG   0.0000
  17 N17          1.3285    -0.2980    -0.0563 N.2          1    LIG   0.0000
  18 C18          2.0564     0.7932    -0.0407 C.2          1    LIG   0.0000
  19 C19          3.5075     0.8351    -0.0594 C.2          1    LIG   0.0000
  20 N20          4.3083     1.5443     0.7879 N.2          1    LIG   0.0000
  21 C21          5.5424     1.3037     0.4126 C.2          1    LIG   0.0000
  22 C22          6.7148     1.8759     1.0461 C.ar         1    LIG   0.0000
  23 C23          7.9807     1.5612     0.5631 C.ar         1    LIG   0.0000
  24 C24          9.0996     2.1139     1.1772 C.ar         1    LIG   0.0000
  25 C25          8.9460     2.9717     2.2622 C.ar         1    LIG   0.0000
  26 C26          7.6762     3.2811     2.7384 C.ar         1    LIG   0.0000
  27 C27          6.5517     2.7320     2.1303 C.ar         1    LIG   0.0000
  28 O28          5.5540     0.4808    -0.6181 O.2          1    LIG   0.0000
  29 C29          4.3187     0.1709    -0.9279 C.2          1    LIG   0.0000
  30 N30          3.9218    -0.6801    -1.9677 N.pl3        1    LIG   0.0000
  31 N31          4.2482    -1.9452    -2.0808 N.2          1    LIG   0.0000
  32 C32          3.7129    -2.4510    -3.1668 C.2          1    LIG   0.0000
  33 C33          3.8586    -3.8851    -3.6470 C.3          1    LIG   0.0000
  34 C34          2.9795    -1.4315    -3.8074 C.2          1    LIG   0.0000
  35 C35          3.1352    -0.3327    -3.0232 C.2          1    LIG   0.0000
  36 C36          2.5337     1.0389    -3.2826 C.3          1    LIG   0.0000
  37 O37          1.2649     1.8378    -0.0033 O.2          1    LIG   0.0000
  38 H           -1.3080     2.6637     0.9360 H            1    LIG   0.0000
  39 H           -5.4451     1.4863    -1.1267 H            1    LIG   0.0000
  40 H           -4.3770     0.3167    -1.5241 H            1    LIG   0.0000
  41 H           -4.8396     0.5061     0.0305 H            1    LIG   0.0000
  42 H           -1.0567     3.0081    -1.9615 H            1    LIG   0.0000
  43 H           -0.5272     7.1377    -0.3760 H            1    LIG   0.0000
  44 H           -0.4012     8.8207    -2.0771 H            1    LIG   0.0000
  45 H           -0.9092     8.2663    -4.3447 H            1    LIG   0.0000
  46 H           -1.5431     6.0380    -4.9257 H            1    LIG   0.0000
  47 H           -1.6735     4.3494    -3.2300 H            1    LIG   0.0000
  48 H            8.0852     0.9444    -0.2170 H            1    LIG   0.0000
  49 H           10.0148     1.8949     0.8389 H            1    LIG   0.0000
  50 H            9.7524     3.3676     2.7016 H            1    LIG   0.0000
  51 H            7.5715     3.8985     3.5181 H            1    LIG   0.0000
  52 H            5.6365     2.9504     2.4689 H            1    LIG   0.0000
  53 H            3.3503    -4.0042    -4.5000 H            1    LIG   0.0000
  54 H            4.8252    -4.0875    -3.8040 H            1    LIG   0.0000
  55 H            3.4960    -4.5074    -2.9533 H            1    LIG   0.0000
  56 H            2.4567    -1.5019    -4.6569 H            1    LIG   0.0000
  57 H            1.9999     1.0144    -4.1278 H            1    LIG   0.0000
  58 H            1.9386     1.2917    -2.5197 H            1    LIG   0.0000
  59 H            3.2669     1.7132    -3.3709 H            1    LIG   0.0000
@<TRIPOS>BOND
   1        1        2 1
   2        2        3 1
   3        3        4 2
   4        3        5 1
   5        5        6 1
   6        6        7 am
   7        7        8 2
   8        7        9 1
   9        9       10 ar
  10       10       11 ar
  11       11       12 ar
  12       12       13 ar
  13       13       14 ar
  14       14        9 ar
  15        5       15 1
  16       15       16 2
  17       16       17 1
  18       17       18 2
  19       18       19 1
  20       19       20 1
  21       20       21 2
  22       21       22 1
  23       22       23 ar
  24       23       24 ar
  25       24       25 ar
  26       25       26 ar
  27       26       27 ar
  28       27       22 ar
  29       21       28 1
  30       28       29 1
  31       29       19 2
  32       29       30 1
  33       30       31 1
  34       31       32 2
  35       32       33 1
  36       32       34 1
  37       34       35 2
  38       35       30 1
  39       35       36 1
  40       18       37 1
  41       37       15 1
  42        5       38 1
  43        1       39 1
  44        1       40 1
  45        1       41 1
  46        6       42 1
  47       10       43 1
  48       11       44 1
  49       12       45 1
  50       13       46 1
  51       14       47 1
  52       23       48 1
  53       24       49 1
  54       25       50 1
  55       26       51 1
  56       27       52 1
  57       33       53 1
  58       33       54 1
  59       33       55 1
  60       34       56 1
  61       36       57 1
  62       36       58 1
  63       36       59 1

@<TRIPOS>MOLECULE

  59   63
SMALL
USER_CHARGES
@<TRIPOS>ATOM
   1 C1          -4.6357     0.9828    -0.8245 C.3          1    LIG   0.0000
   2 O2          -3.5639     1.8908    -0.6163 O.3          1    LIG   0.0000
   3 C3          -2.4386     1.3528    -0.2159 C.2          1    LIG   0.0000
   4 O4          -2.3664     0.1665    -0.0499 O.2          1    LIG   0.0000
   5 C5          -1.2244     2.2311     0.0383 C.3          1    LIG   0.0000
   6 N6          -1.1441     3.2686    -1.0000 N.am         1    LIG   0.0000
   7 C7          -1.1889     4.5925    -0.6503 C.2          1    LIG   0.0000
   8 O8          -1.2938     4.9051     0.5035 O.2          1    LIG   0.0000
   9 C9          -1.1097     5.6161    -1.6747 C.ar         1    LIG   0.0000
  10 C10         -0.7391     6.9108    -1.3266 C.ar         1    LIG   0.0000
  11 C11         -0.6663     7.8864    -2.3154 C.ar         1    LIG   0.0000
  12 C12         -0.9624     7.5627    -3.6360 C.ar         1    LIG   0.0000
  13 C13         -1.3319     6.2652    -3.9751 C.ar         1    LIG   0.0000
  14 C14         -1.4077     5.2836    -2.9921 C.ar         1    LIG   0.0000
  15 C15          0.0345     1.3787     0.0016 C.2          1    LIG   0.0000
  16 N16          0.0672     0.0683    -0.0305 N.2          1    LIG   0.0000
  17 N17          1.3285    -0.2980    -0.0563 N.2          1    LIG   0.0000
  18 C18          2.0564     0.7932    -0.0407 C.2          1    LIG   0.0000
  19 C19          3.5075     0.8351    -0.0594 C.2          1    LIG   0.0000
  20 N20          4.3139     0.5073    -1.1103 N.2          1    LIG   0.0000
  21 C21          5.5462     0.6795    -0.6939 C.2          1    LIG   0.0000
  22 C22          6.7238     0.4297    -1.5027 C.ar         1    LIG   0.0000
  23 C23          7.9878     0.6367    -0.9602 C.ar         1    LIG   0.0000
  24 C24          9.1117     0.3953    -1.7433 C.ar         1    LIG   0.0000
  25 C25          8.9649    -0.0485    -3.0540 C.ar         1    LIG   0.0000
  26 C26          7.6969    -0.2531    -3.5882 C.ar         1    LIG   0.0000
  27 C27          6.5675    -0.0134    -2.8120 C.ar         1    LIG   0.0000
  28 O28          5.5512     1.1006     0.5560 O.2          1    LIG   0.0000
  29 C29          4.3131     1.2110     0.9718 C.2          1    LIG   0.0000
  30 N30          3.9093     1.6306     2.2460 N.pl3        1    LIG   0.0000
  31 N31          3.2069     0.9180     3.0936 N.2          1    LIG   0.0000
  32 C32          3.0003     1.6040     4.1929 C.2          1    LIG   0.0000
  33 C33          2.2285     1.1244     5.4106 C.3          1    LIG   0.0000
  34 C34          3.6205     2.8615     4.0456 C.2          1    LIG   0.0000
  35 C35          4.1813     2.8405     2.8080 C.2          1    LIG   0.0000
  36 C36          4.9729     3.9703     2.1697 C.3          1    LIG   0.0000
  37 O37          1.2649     1.8378    -0.0033 O.2          1    LIG   0.0000
  38 H           -1.3080     2.6637     0.9360 H            1    LIG   0.0000
  39 H           -5.4451     1.4863    -1.1267 H            1    LIG   0.0000
  40 H           -4.3770     0.3167    -1.5241 H            1    LIG   0.0000
  41 H           -4.8396     0.5061     0.0305 H            1    LIG   0.0000
  42 H           -1.0567     3.0081    -1.9615 H            1    LIG   0.0000
  43 H           -0.5272     7.1377    -0.3760 H            1    LIG   0.0000
  44 H           -0.4012     8.8207    -2.0771 H            1    LIG   0.0000
  45 H           -0.9092     8.2663    -4.3447 H            1    LIG   0.0000
  46 H           -1.5431     6.0380    -4.9257 H            1    LIG   0.0000
  47 H           -1.6735     4.3494    -3.2300 H            1    LIG   0.0000
  48 H            8.0874     0.9555    -0.0177 H            1    LIG   0.0000
  49 H           10.0256     0.5407    -1.3642 H            1    LIG   0.0000
  50 H            9.7749    -0.2213    -3.6145 H            1    LIG   0.0000
  51 H            7.5972    -0.5725    -4.5306 H            1    LIG   0.0000
  52 H            5.6535    -0.1580    -3.1911 H            1    LIG   0.0000
  53 H            2.2226     1.8431     6.1059 H            1    LIG   0.0000
  54 H            1.2885     0.9091     5.1459 H            1    LIG   0.0000
  55 H            2.6663     0.3054     5.7815 H            1    LIG   0.0000
  56 H            3.6429     3.6089     4.7096 H            1    LIG   0.0000
  57 H            5.0202     4.7431     2.8026 H            1    LIG   0.0000
  58 H            5.8981     3.6529     1.9615 H            1    LIG   0.0000
  59 H            4.5212     4.2581     1.3252 H            1    LIG   0.0000
@<TRIPOS>BOND
   1        1        2 1
   2        2        3 1
   3        3        4 2
   4        3        5 1
   5        5        6 1
   6        6        7 am
   7        7        8 2
   8        7        9 1
   9        9       10 ar
  10       10       11 ar
  11       11       12 ar
  12       12       13 ar
  13       13       14 ar
  14       14        9 ar
  15        5       15 1
  16       15       16 2
  17       16       17 1
  18       17       18 2
  19       18       19 1
  20       19       20 1
  21       20       21 2
  22       21       22 1
  23       22       23 ar
  24       23       24 ar
  25       24       25 ar
  26       25       26 ar
  27       26       27 ar
  28       27       22 ar
  29       21       28 1
  30       28       29 1
  31       29       19 2
  32       29       30 1
  33       30       31 1
  34       31       32 2
  35       32       33 1
  36       32       34 1
  37       34       35 2
  38       35       30 1
  39       35       36 1
  40       18       37 1
  41       37       15 1
  42        5       38 1
  43        1       39 1
  44        1       40 1
  45        1       41 1
  46        6       42 1
  47       10       43 1
  48       11       44 1
  49       12       45 1
  50       13       46 1
  51       14       47 1
  52       23       48 1
  53       24       49 1
  54       25       50 1
  55       26       51 1
  56       27       52 1
  57       33       53 1
  58       33       54 1
  59       33       55 1
  60       34       56 1
  61       36       57 1
  62       36       58 1
  63       36       59 1

@<TRIPOS>MOLECULE

  59   63
SMALL
USER_CHARGES
@<TRIPOS>ATOM
   1 C1          -3.8631    -0.4006     0.2646 C.3          1    LIG   0.0000
   2 O2          -2.7072     0.3568     0.5915 O.3          1    LIG   0.0000
   3 C3          -2.4386     1.3528    -0.2159 C.2          1    LIG   0.0000
   4 O4          -3.1512     1.5717    -1.1563 O.2          1    LIG   0.0000
   5 C5          -1.2244     2.2311     0.0383 C.3          1    LIG   0.0000
   6 N6          -1.1441     3.2686    -1.0000 N.am         1    LIG   0.0000
   7 C7          -1.1889     4.5925    -0.6503 C.2          1    LIG   0.0000
   8 O8          -1.2938     4.9051     0.5035 O.2          1    LIG   0.0000
   9 C9          -1.1097     5.6161    -1.6747 C.ar         1    LIG   0.0000
  10 C10         -1.5627     6.9021    -1.3991 C.ar         1    LIG   0.0000
  11 C11         -1.4836     7.8773    -2.3876 C.ar         1    LIG   0.0000
  12 C12         -0.9554     7.5623    -3.6359 C.ar         1    LIG   0.0000
  13 C13         -0.5045     6.2736    -3.9027 C.ar         1    LIG   0.0000
  14 C14         -0.5807     5.2920    -2.9197 C.ar         1    LIG   0.0000
  15 C15          0.0345     1.3787     0.0016 C.2          1    LIG   0.0000
  16 N16          0.0672     0.0683    -0.0305 N.2          1    LIG   0.0000
  17 N17          1.3285    -0.2980    -0.0563 N.2          1    LIG   0.0000
  18 C18          2.0564     0.7932    -0.0407 C.2          1    LIG   0.0000
  19 C19          3.5075     0.8351    -0.0594 C.2          1    LIG   0.0000
  20 N20          4.2855     1.5836    -0.8940 N.2          1    LIG   0.0000
  21 C21          5.5294     1.3134    -0.5755 C.2          1    LIG   0.0000
  22 C22          6.6850     1.8925    -1.2332 C.ar         1    LIG   0.0000
  23 C23          7.9638     1.5306    -0.8226 C.ar         1    LIG   0.0000
  24 C24          9.0664     2.0914    -1.4584 C.ar         1    LIG   0.0000
  25 C25          8.8839     3.0036    -2.4934 C.ar         1    LIG   0.0000
  26 C26          7.6014     3.3596    -2.8976 C.ar         1    LIG   0.0000
  27 C27          6.4931     2.8038    -2.2665 C.ar         1    LIG   0.0000
  28 O28          5.5684     0.4420     0.4138 O.2          1    LIG   0.0000
  29 C29          4.3415     0.1331     0.7562 C.2          1    LIG   0.0000
  30 N30          3.9723    -0.7615     1.7693 N.pl3        1    LIG   0.0000
  31 N31          3.2455    -0.4627     2.8191 N.2          1    LIG   0.0000
  32 C32          3.0842    -1.5265     3.5702 C.2          1    LIG   0.0000
  33 C33          2.3044    -1.5875     4.8728 C.3          1    LIG   0.0000
  34 C34          3.7597    -2.6008     2.9561 C.2          1    LIG   0.0000
  35 C35          4.3060    -2.0801     1.8260 C.2          1    LIG   0.0000
  36 C36          5.1399    -2.8408     0.8079 C.3          1    LIG   0.0000
  37 O37          1.2649     1.8378    -0.0033 O.2          1    LIG   0.0000
  38 H           -1.3080     2.6637     0.9360 H            1    LIG   0.0000
  39 H           -3.9825    -1.1327     0.9353 H            1    LIG   0.0000
  40 H           -4.6660     0.1954     0.2752 H            1    LIG   0.0000
  41 H           -3.7546    -0.7977    -0.6467 H            1    LIG   0.0000
  42 H           -1.0567     3.0081    -1.9615 H            1    LIG   0.0000
  43 H           -1.9411     7.1229    -0.5002 H            1    LIG   0.0000
  44 H           -1.8063     8.8053    -2.2012 H            1    LIG   0.0000
  45 H           -0.8998     8.2656    -4.3446 H            1    LIG   0.0000
  46 H           -0.1255     6.0528    -4.8013 H            1    LIG   0.0000
  47 H           -0.2587     4.3638    -3.1062 H            1    LIG   0.0000
  48 H            8.0890     0.8744    -0.0785 H            1    LIG   0.0000
  49 H            9.9905     1.8390    -1.1718 H            1    LIG   0.0000
  50 H            9.6786     3.4052    -2.9486 H            1    LIG   0.0000
  51 H            7.4760     4.0153    -3.6422 H            1    LIG   0.0000
  52 H            5.5688     3.0566    -2.5525 H            1    LIG   0.0000
  53 H            2.3405    -2.5170     5.2397 H            1    LIG   0.0000
  54 H            2.7071    -0.9528     5.5324 H            1    LIG   0.0000
  55 H            1.3523    -1.3327     4.7036 H            1    LIG   0.0000
  56 H            3.8233    -3.5440     3.2823 H            1    LIG   0.0000
  57 H            5.2301    -3.7940     1.0963 H            1    LIG   0.0000
  58 H            4.6912    -2.8037    -0.0850 H            1    LIG   0.0000
  59 H            6.0470    -2.4250     0.7427 H            1    LIG   0.0000
@<TRIPOS>BOND
   1        1        2 1
   2        2        3 1
   3        3        4 2
   4        3        5 1
   5        5        6 1
   6        6        7 am
   7        7        8 2
   8        7        9 1
   9        9       10 ar
  10       10       11 ar
  11       11       12 ar
  12       12       13 ar
  13       13       14 ar
  14       14        9 ar
  15        5       15 1
  16       15       16 2
  17       16       17 1
  18       17       18 2
  19       18       19 1
  20       19       20 1
  21       20       21 2
  22       21       22 1
  23       22       23 ar
  24       23       24 ar
  25       24       25 ar
  26       25       26 ar
  27       26       27 ar
  28       27       22 ar
  29       21       28 1
  30       28       29 1
  31       29       19 2
  32       29       30 1
  33       30       31 1
  34       31       32 2
  35       32       33 1
  36       32       34 1
  37       34       35 2
  38       35       30 1
  39       35       36 1
  40       18       37 1
  41       37       15 1
  42        5       38 1
  43        1       39 1
  44        1       40 1
  45        1       41 1
  46        6       42 1
  47       10       43 1
  48       11       44 1
  49       12       45 1
  50       13       46 1
  51       14       47 1
  52       23       48 1
  53       24       49 1
  54       25       50 1
  55       26       51 1
  56       27       52 1
  57       33       53 1
  58       33       54 1
  59       33       55 1
  60       34       56 1
  61       36       57 1
  62       36       58 1
  63       36       59 1

