@<TRIPOS>MOLECULE
*****
 59 63 0 0 0
SMALL
USER_CHARGES

@<TRIPOS>ATOM
      1 C1         -2.2288    4.6160   -2.6529 C.3     1  LIG1        0.0000
      2 O2         -2.1457    4.0176   -1.3678 O.3     1  LIG1        0.0000
      3 C3         -1.3863    2.9531   -1.2894 C.2     1  LIG1        0.0000
      4 O4         -0.8185    2.5479   -2.2659 O.2     1  LIG1        0.0000
      5 C5         -1.2244    2.2311    0.0383 C.3     1  LIG1        0.0000
      6 N6         -1.1166    3.2178    1.1226 N.am    1  LIG1        0.0000
      7 C7         -2.0356    3.2221    2.1387 C.2     1  LIG1        0.0000
      8 O8         -2.9285    2.4204    2.1436 O.2     1  LIG1        0.0000
      9 C9         -1.9292    4.1955    3.2085 C.3     1  LIG1        0.0000
     10 C10        -3.0432    4.4836    3.9901 C.3     1  LIG1        0.0000
     11 C11        -2.9323    5.4191    5.0135 C.3     1  LIG1        0.0000
     12 C12        -1.7169    6.0553    5.2467 C.3     1  LIG1        0.0000
     13 C13        -0.6079    5.7608    4.4602 C.3     1  LIG1        0.0000
     14 C14        -0.7104    4.8269    3.4341 C.3     1  LIG1        0.0000
     15 C15         0.0345    1.3787    0.0016 C.2     1  LIG1        0.0000
     16 N16         0.0672    0.0683   -0.0305 N.2     1  LIG1        0.0000
     17 N17         1.3285   -0.2980   -0.0563 N.2     1  LIG1        0.0000
     18 C18         2.0564    0.7932   -0.0407 C.2     1  LIG1        0.0000
     19 C19         3.5075    0.8351   -0.0594 C.2     1  LIG1        0.0000
     20 N20         4.2857    1.9559   -0.0438 N.2     1  LIG1        0.0000
     21 C21         5.5292    1.5389   -0.0791 C.2     1  LIG1        0.0000
     22 C22         6.6846    2.4154   -0.0895 C.3     1  LIG1        0.0000
     23 C23         7.9628    1.8689   -0.1368 C.3     1  LIG1        0.0000
     24 C24         9.0652    2.7170   -0.1456 C.3     1  LIG1        0.0000
     25 C25         8.8830    4.0961   -0.1077 C.3     1  LIG1        0.0000
     26 C26         7.6010    4.6340   -0.0608 C.3     1  LIG1        0.0000
     27 C27         6.4930    3.7927   -0.0510 C.3     1  LIG1        0.0000
     28 O28         5.5680    0.2209   -0.1113 O.2     1  LIG1        0.0000
     29 C29         4.3413   -0.2405   -0.0948 C.2     1  LIG1        0.0000
     30 N30         3.9720   -1.5918   -0.1185 N.pl3   1  LIG1        0.0000
     31 N31         3.2699   -2.2040    0.8045 N.2     1  LIG1        0.0000
     32 C32         3.1004   -3.4633    0.4773 C.2     1  LIG1        0.0000
     33 C33         2.3425   -4.5004    1.2889 C.3     1  LIG1        0.0000
     34 C34         3.7432   -3.6836   -0.7579 C.2     1  LIG1        0.0000
     35 C35         4.2800   -2.4831   -1.1004 C.2     1  LIG1        0.0000
     36 C36         5.0804   -2.1922   -2.3595 C.3     1  LIG1        0.0000
     37 O37         1.2649    1.8378   -0.0033 O.2     1  LIG1        0.0000
     38 H          -2.0190    1.6454    0.1983 H       1  LIG1        0.0000
     39 H          -2.8276    5.4158   -2.6101 H       1  LIG1        0.0000
     40 H          -1.3163    4.8982   -2.9488 H       1  LIG1        0.0000
     41 H          -2.6012    3.9554   -3.3048 H       1  LIG1        0.0000
     42 H          -0.3725    3.8858    1.1186 H       1  LIG1        0.0000
     43 H          -3.9141    4.0232    3.8182 H       1  LIG1        0.0000
     44 H          -3.7264    5.6345    5.5818 H       1  LIG1        0.0000
     45 H          -1.6403    6.7273    5.9832 H       1  LIG1        0.0000
     46 H           0.2632    6.2206    4.6324 H       1  LIG1        0.0000
     47 H           0.0834    4.6118    2.8651 H       1  LIG1        0.0000
     48 H           8.0878    0.8771   -0.1641 H       1  LIG1        0.0000
     49 H           9.9890    2.3356   -0.1793 H       1  LIG1        0.0000
     50 H           9.6775    4.7033   -0.1143 H       1  LIG1        0.0000
     51 H           7.4758    5.6258   -0.0342 H       1  LIG1        0.0000
     52 H           5.5691    4.1739   -0.0166 H       1  LIG1        0.0000
     53 H           2.3663   -5.3792    0.8122 H       1  LIG1        0.0000
     54 H           2.7695   -4.5972    2.1879 H       1  LIG1        0.0000
     55 H           1.3930   -4.2074    1.4006 H       1  LIG1        0.0000
     56 H           3.7935   -4.5399   -1.2720 H       1  LIG1        0.0000
     57 H           5.1564   -3.0260   -2.9062 H       1  LIG1        0.0000
     58 H           4.6169   -1.4848   -2.8931 H       1  LIG1        0.0000
     59 H           5.9944   -1.8744   -2.1074 H       1  LIG1        0.0000
@<TRIPOS>BOND
     1     1     2    1
     2     2     3    1
     3     3     4    2
     4     3     5    1
     5     5     6    1
     6     6     7   am
     7     7     8    2
     8     7     9    1
     9     9    10   ar
    10    10    11   ar
    11    11    12   ar
    12    12    13   ar
    13    13    14   ar
    14    14     9   ar
    15     5    15    1
    16    15    16    2
    17    16    17    1
    18    17    18    2
    19    18    19    1
    20    19    20    1
    21    20    21    2
    22    21    22    1
    23    22    23   ar
    24    23    24   ar
    25    24    25   ar
    26    25    26   ar
    27    26    27   ar
    28    27    22   ar
    29    21    28    1
    30    28    29    1
    31    29    19    2
    32    29    30    1
    33    30    31    1
    34    31    32    2
    35    32    33    1
    36    32    34    1
    37    34    35    2
    38    35    30    1
    39    35    36    1
    40    18    37    1
    41    37    15    1
    42     5    38    1
    43     1    39    1
    44     1    40    1
    45     1    41    1
    46     6    42    1
    47    10    43    1
    48    11    44    1
    49    12    45    1
    50    13    46    1
    51    14    47    1
    52    23    48    1
    53    24    49    1
    54    25    50    1
    55    26    51    1
    56    27    52    1
    57    33    53    1
    58    33    54    1
    59    33    55    1
    60    34    56    1
    61    36    57    1
    62    36    58    1
    63    36    59    1
