@<TRIPOS>MOLECULE
*****
 59 63 0 0 0
SMALL
USER_CHARGES

@<TRIPOS>ATOM
      1 C1         -1.3994    5.6620    1.5003 C.3     1  LIG1        0.0000
      2 O2         -1.8253    4.3871    1.0425 O.3     1  LIG1        0.0000
      3 C3         -0.8822    3.6181    0.5574 C.2     1  LIG1        0.0000
      4 O4          0.2520    4.0087    0.5229 O.2     1  LIG1        0.0000
      5 C5         -1.2244    2.2311    0.0383 C.3     1  LIG1        0.0000
      6 N6         -2.2140    1.6056    0.9273 N.am    1  LIG1        0.0000
      7 C7         -3.4354    1.2281    0.4348 C.2     1  LIG1        0.0000
      8 O8         -3.6975    1.4082   -0.7223 O.2     1  LIG1        0.0000
      9 C9         -4.4117    0.6110    1.3119 C.3     1  LIG1        0.0000
     10 C10        -5.7555    0.6088    0.9526 C.3     1  LIG1        0.0000
     11 C11        -6.6851    0.0153    1.8001 C.3     1  LIG1        0.0000
     12 C12        -6.2674   -0.5680    2.9925 C.3     1  LIG1        0.0000
     13 C13        -4.9215   -0.5614    3.3437 C.3     1  LIG1        0.0000
     14 C14        -3.9852    0.0307    2.5020 C.3     1  LIG1        0.0000
     15 C15         0.0345    1.3787    0.0016 C.2     1  LIG1        0.0000
     16 N16         0.0672    0.0683   -0.0305 N.2     1  LIG1        0.0000
     17 N17         1.3285   -0.2980   -0.0563 N.2     1  LIG1        0.0000
     18 C18         2.0564    0.7932   -0.0407 C.2     1  LIG1        0.0000
     19 C19         3.5075    0.8351   -0.0594 C.2     1  LIG1        0.0000
     20 N20         4.3083    1.5443    0.7879 N.2     1  LIG1        0.0000
     21 C21         5.5424    1.3037    0.4126 C.2     1  LIG1        0.0000
     22 C22         6.7148    1.8759    1.0461 C.3     1  LIG1        0.0000
     23 C23         7.9807    1.5612    0.5631 C.3     1  LIG1        0.0000
     24 C24         9.0996    2.1139    1.1772 C.3     1  LIG1        0.0000
     25 C25         8.9460    2.9717    2.2622 C.3     1  LIG1        0.0000
     26 C26         7.6762    3.2811    2.7384 C.3     1  LIG1        0.0000
     27 C27         6.5517    2.7320    2.1303 C.3     1  LIG1        0.0000
     28 O28         5.5540    0.4808   -0.6181 O.2     1  LIG1        0.0000
     29 C29         4.3187    0.1709   -0.9279 C.2     1  LIG1        0.0000
     30 N30         3.9218   -0.6801   -1.9677 N.pl3   1  LIG1        0.0000
     31 N31         3.1650   -0.3383   -2.9825 N.2     1  LIG1        0.0000
     32 C32         2.9838   -1.3691   -3.7740 C.2     1  LIG1        0.0000
     33 C33         2.1661   -1.3762   -5.0545 C.3     1  LIG1        0.0000
     34 C34         3.6810   -2.4662   -3.2282 C.2     1  LIG1        0.0000
     35 C35         4.2581   -1.9935   -2.0924 C.2     1  LIG1        0.0000
     36 C36         5.1260   -2.7938   -1.1349 C.3     1  LIG1        0.0000
     37 O37         1.2649    1.8378   -0.0033 O.2     1  LIG1        0.0000
     38 H          -1.6042    2.3046   -0.8838 H       1  LIG1        0.0000
     39 H          -2.1863    6.1707    1.8496 H       1  LIG1        0.0000
     40 H          -0.7265    5.5462    2.2308 H       1  LIG1        0.0000
     41 H          -0.9856    6.1670    0.7428 H       1  LIG1        0.0000
     42 H          -1.9956    1.4555    1.8916 H       1  LIG1        0.0000
     43 H          -6.0500    1.0292    0.0944 H       1  LIG1        0.0000
     44 H          -7.6539    0.0078    1.5525 H       1  LIG1        0.0000
     45 H          -6.9381   -0.9939    3.5998 H       1  LIG1        0.0000
     46 H          -4.6267   -0.9824    4.2016 H       1  LIG1        0.0000
     47 H          -3.0164    0.0390    2.7498 H       1  LIG1        0.0000
     48 H           8.0852    0.9444   -0.2170 H       1  LIG1        0.0000
     49 H          10.0148    1.8949    0.8389 H       1  LIG1        0.0000
     50 H           9.7524    3.3676    2.7016 H       1  LIG1        0.0000
     51 H           7.5715    3.8985    3.5181 H       1  LIG1        0.0000
     52 H           5.6365    2.9504    2.4689 H       1  LIG1        0.0000
     53 H           2.1932   -2.2889   -5.4623 H       1  LIG1        0.0000
     54 H           1.2189   -1.1320   -4.8466 H       1  LIG1        0.0000
     55 H           2.5480   -0.7123   -5.6976 H       1  LIG1        0.0000
     56 H           3.7385   -3.3936   -3.5978 H       1  LIG1        0.0000
     57 H           5.2103   -3.7332   -1.4674 H       1  LIG1        0.0000
     58 H           6.0333   -2.3770   -1.0798 H       1  LIG1        0.0000
     59 H           4.7053   -2.7979   -0.2277 H       1  LIG1        0.0000
@<TRIPOS>BOND
     1     1     2    1
     2     2     3    1
     3     3     4    2
     4     3     5    1
     5     5     6    1
     6     6     7   am
     7     7     8    2
     8     7     9    1
     9     9    10   ar
    10    10    11   ar
    11    11    12   ar
    12    12    13   ar
    13    13    14   ar
    14    14     9   ar
    15     5    15    1
    16    15    16    2
    17    16    17    1
    18    17    18    2
    19    18    19    1
    20    19    20    1
    21    20    21    2
    22    21    22    1
    23    22    23   ar
    24    23    24   ar
    25    24    25   ar
    26    25    26   ar
    27    26    27   ar
    28    27    22   ar
    29    21    28    1
    30    28    29    1
    31    29    19    2
    32    29    30    1
    33    30    31    1
    34    31    32    2
    35    32    33    1
    36    32    34    1
    37    34    35    2
    38    35    30    1
    39    35    36    1
    40    18    37    1
    41    37    15    1
    42     5    38    1
    43     1    39    1
    44     1    40    1
    45     1    41    1
    46     6    42    1
    47    10    43    1
    48    11    44    1
    49    12    45    1
    50    13    46    1
    51    14    47    1
    52    23    48    1
    53    24    49    1
    54    25    50    1
    55    26    51    1
    56    27    52    1
    57    33    53    1
    58    33    54    1
    59    33    55    1
    60    34    56    1
    61    36    57    1
    62    36    58    1
    63    36    59    1
