@<TRIPOS>MOLECULE
*****
 59 63 0 0 0
SMALL
USER_CHARGES

@<TRIPOS>ATOM
      1 C1         -1.3994    5.6620    1.5003 C.3     1  LIG1        0.0000
      2 O2         -1.8253    4.3871    1.0425 O.3     1  LIG1        0.0000
      3 C3         -0.8822    3.6181    0.5574 C.2     1  LIG1        0.0000
      4 O4          0.2520    4.0087    0.5229 O.2     1  LIG1        0.0000
      5 C5         -1.2244    2.2311    0.0383 C.3     1  LIG1        0.0000
      6 N6         -2.2140    1.6056    0.9273 N.am    1  LIG1        0.0000
      7 C7         -3.4354    1.2281    0.4348 C.2     1  LIG1        0.0000
      8 O8         -3.6975    1.4082   -0.7223 O.2     1  LIG1        0.0000
      9 C9         -4.4117    0.6110    1.3119 C.3     1  LIG1        0.0000
     10 C10        -5.4504   -0.1371    0.7674 C.3     1  LIG1        0.0000
     11 C11        -6.3826   -0.7248    1.6160 C.3     1  LIG1        0.0000
     12 C12        -6.2705   -0.5618    2.9934 C.3     1  LIG1        0.0000
     13 C13        -5.2283    0.1878    3.5293 C.3     1  LIG1        0.0000
     14 C14        -4.2919    0.7796    2.6875 C.3     1  LIG1        0.0000
     15 C15         0.0345    1.3787    0.0016 C.2     1  LIG1        0.0000
     16 N16         0.0672    0.0683   -0.0305 N.2     1  LIG1        0.0000
     17 N17         1.3285   -0.2980   -0.0563 N.2     1  LIG1        0.0000
     18 C18         2.0564    0.7932   -0.0407 C.2     1  LIG1        0.0000
     19 C19         3.5075    0.8351   -0.0594 C.2     1  LIG1        0.0000
     20 N20         4.2855    1.5836   -0.8940 N.2     1  LIG1        0.0000
     21 C21         5.5294    1.3134   -0.5755 C.2     1  LIG1        0.0000
     22 C22         6.6850    1.8925   -1.2332 C.3     1  LIG1        0.0000
     23 C23         7.9638    1.5306   -0.8226 C.3     1  LIG1        0.0000
     24 C24         9.0664    2.0914   -1.4584 C.3     1  LIG1        0.0000
     25 C25         8.8839    3.0036   -2.4934 C.3     1  LIG1        0.0000
     26 C26         7.6014    3.3596   -2.8976 C.3     1  LIG1        0.0000
     27 C27         6.4931    2.8038   -2.2665 C.3     1  LIG1        0.0000
     28 O28         5.5684    0.4420    0.4138 O.2     1  LIG1        0.0000
     29 C29         4.3415    0.1331    0.7562 C.2     1  LIG1        0.0000
     30 N30         3.9723   -0.7615    1.7693 N.pl3   1  LIG1        0.0000
     31 N31         3.2678   -1.8542    1.5986 N.2     1  LIG1        0.0000
     32 C32         3.0994   -2.4633    2.7485 C.2     1  LIG1        0.0000
     33 C33         2.3383   -3.7601    2.9667 C.3     1  LIG1        0.0000
     34 C34         3.7487   -1.7045    3.7435 C.2     1  LIG1        0.0000
     35 C35         4.2857   -0.6417    3.0888 C.2     1  LIG1        0.0000
     36 C36         5.0938    0.4789    3.7224 C.3     1  LIG1        0.0000
     37 O37         1.2649    1.8378   -0.0033 O.2     1  LIG1        0.0000
     38 H          -1.6042    2.3046   -0.8838 H       1  LIG1        0.0000
     39 H          -2.1863    6.1707    1.8496 H       1  LIG1        0.0000
     40 H          -0.7265    5.5462    2.2308 H       1  LIG1        0.0000
     41 H          -0.9856    6.1670    0.7428 H       1  LIG1        0.0000
     42 H          -1.9956    1.4555    1.8916 H       1  LIG1        0.0000
     43 H          -5.5260   -0.2511   -0.2232 H       1  LIG1        0.0000
     44 H          -7.1338   -1.2647    1.2361 H       1  LIG1        0.0000
     45 H          -6.9422   -0.9856    3.6010 H       1  LIG1        0.0000
     46 H          -5.1522    0.3013    4.5199 H       1  LIG1        0.0000
     47 H          -3.5411    1.3201    3.0671 H       1  LIG1        0.0000
     48 H           8.0890    0.8744   -0.0785 H       1  LIG1        0.0000
     49 H           9.9905    1.8390   -1.1718 H       1  LIG1        0.0000
     50 H           9.6786    3.4052   -2.9486 H       1  LIG1        0.0000
     51 H           7.4760    4.0153   -3.6422 H       1  LIG1        0.0000
     52 H           5.5688    3.0566   -2.5525 H       1  LIG1        0.0000
     53 H           2.3637   -4.0025    3.9365 H       1  LIG1        0.0000
     54 H           1.3883   -3.6418    2.6775 H       1  LIG1        0.0000
     55 H           2.7618   -4.4896    2.4296 H       1  LIG1        0.0000
     56 H           3.8025   -1.9053    4.7217 H       1  LIG1        0.0000
     57 H           5.1726    0.3179    4.7062 H       1  LIG1        0.0000
     58 H           6.0065    0.5035    3.3145 H       1  LIG1        0.0000
     59 H           4.6340    1.3526    3.5634 H       1  LIG1        0.0000
@<TRIPOS>BOND
     1     1     2    1
     2     2     3    1
     3     3     4    2
     4     3     5    1
     5     5     6    1
     6     6     7   am
     7     7     8    2
     8     7     9    1
     9     9    10   ar
    10    10    11   ar
    11    11    12   ar
    12    12    13   ar
    13    13    14   ar
    14    14     9   ar
    15     5    15    1
    16    15    16    2
    17    16    17    1
    18    17    18    2
    19    18    19    1
    20    19    20    1
    21    20    21    2
    22    21    22    1
    23    22    23   ar
    24    23    24   ar
    25    24    25   ar
    26    25    26   ar
    27    26    27   ar
    28    27    22   ar
    29    21    28    1
    30    28    29    1
    31    29    19    2
    32    29    30    1
    33    30    31    1
    34    31    32    2
    35    32    33    1
    36    32    34    1
    37    34    35    2
    38    35    30    1
    39    35    36    1
    40    18    37    1
    41    37    15    1
    42     5    38    1
    43     1    39    1
    44     1    40    1
    45     1    41    1
    46     6    42    1
    47    10    43    1
    48    11    44    1
    49    12    45    1
    50    13    46    1
    51    14    47    1
    52    23    48    1
    53    24    49    1
    54    25    50    1
    55    26    51    1
    56    27    52    1
    57    33    53    1
    58    33    54    1
    59    33    55    1
    60    34    56    1
    61    36    57    1
    62    36    58    1
    63    36    59    1
