@<TRIPOS>MOLECULE
*****
 59 63 0 0 0
SMALL
USER_CHARGES

@<TRIPOS>ATOM
      1 C1         -4.6357    0.9828   -0.8245 C.3     1  LIG1        0.0000
      2 O2         -3.5639    1.8908   -0.6163 O.3     1  LIG1        0.0000
      3 C3         -2.4386    1.3528   -0.2159 C.2     1  LIG1        0.0000
      4 O4         -2.3664    0.1665   -0.0499 O.2     1  LIG1        0.0000
      5 C5         -1.2244    2.2311    0.0383 C.3     1  LIG1        0.0000
      6 N6         -1.1441    3.2686   -1.0000 N.am    1  LIG1        0.0000
      7 C7         -1.1889    4.5925   -0.6503 C.2     1  LIG1        0.0000
      8 O8         -1.2938    4.9051    0.5035 O.2     1  LIG1        0.0000
      9 C9         -1.1097    5.6161   -1.6747 C.3     1  LIG1        0.0000
     10 C10        -1.5627    6.9021   -1.3991 C.3     1  LIG1        0.0000
     11 C11        -1.4836    7.8773   -2.3876 C.3     1  LIG1        0.0000
     12 C12        -0.9554    7.5623   -3.6359 C.3     1  LIG1        0.0000
     13 C13        -0.5045    6.2736   -3.9027 C.3     1  LIG1        0.0000
     14 C14        -0.5807    5.2920   -2.9197 C.3     1  LIG1        0.0000
     15 C15         0.0345    1.3787    0.0016 C.2     1  LIG1        0.0000
     16 N16         0.0672    0.0683   -0.0305 N.2     1  LIG1        0.0000
     17 N17         1.3285   -0.2980   -0.0563 N.2     1  LIG1        0.0000
     18 C18         2.0564    0.7932   -0.0407 C.2     1  LIG1        0.0000
     19 C19         3.5075    0.8351   -0.0594 C.2     1  LIG1        0.0000
     20 N20         4.2857    1.9559   -0.0438 N.2     1  LIG1        0.0000
     21 C21         5.5292    1.5389   -0.0791 C.2     1  LIG1        0.0000
     22 C22         6.6846    2.4154   -0.0895 C.3     1  LIG1        0.0000
     23 C23         7.9628    1.8689   -0.1368 C.3     1  LIG1        0.0000
     24 C24         9.0652    2.7170   -0.1456 C.3     1  LIG1        0.0000
     25 C25         8.8830    4.0961   -0.1077 C.3     1  LIG1        0.0000
     26 C26         7.6010    4.6340   -0.0608 C.3     1  LIG1        0.0000
     27 C27         6.4930    3.7927   -0.0510 C.3     1  LIG1        0.0000
     28 O28         5.5680    0.2209   -0.1113 O.2     1  LIG1        0.0000
     29 C29         4.3413   -0.2405   -0.0948 C.2     1  LIG1        0.0000
     30 N30         3.9720   -1.5918   -0.1185 N.pl3   1  LIG1        0.0000
     31 N31         3.2427   -2.1641   -1.0459 N.2     1  LIG1        0.0000
     32 C32         3.0822   -3.4365   -0.7685 C.2     1  LIG1        0.0000
     33 C33         2.2991   -4.4379   -1.6007 C.3     1  LIG1        0.0000
     34 C34         3.7641   -3.7102    0.4347 C.2     1  LIG1        0.0000
     35 C35         4.3108   -2.5251    0.8130 C.2     1  LIG1        0.0000
     36 C36         5.1525   -2.2893    2.0566 C.3     1  LIG1        0.0000
     37 O37         1.2649    1.8378   -0.0033 O.2     1  LIG1        0.0000
     38 H          -1.3080    2.6637    0.9360 H       1  LIG1        0.0000
     39 H          -5.4451    1.4863   -1.1267 H       1  LIG1        0.0000
     40 H          -4.3770    0.3167   -1.5241 H       1  LIG1        0.0000
     41 H          -4.8396    0.5061    0.0305 H       1  LIG1        0.0000
     42 H          -1.0567    3.0081   -1.9615 H       1  LIG1        0.0000
     43 H          -1.9411    7.1229   -0.5002 H       1  LIG1        0.0000
     44 H          -1.8063    8.8053   -2.2012 H       1  LIG1        0.0000
     45 H          -0.8998    8.2656   -4.3446 H       1  LIG1        0.0000
     46 H          -0.1255    6.0528   -4.8013 H       1  LIG1        0.0000
     47 H          -0.2587    4.3638   -3.1062 H       1  LIG1        0.0000
     48 H           8.0878    0.8771   -0.1641 H       1  LIG1        0.0000
     49 H           9.9890    2.3356   -0.1793 H       1  LIG1        0.0000
     50 H           9.6775    4.7033   -0.1143 H       1  LIG1        0.0000
     51 H           7.4758    5.6258   -0.0342 H       1  LIG1        0.0000
     52 H           5.5691    4.1739   -0.0166 H       1  LIG1        0.0000
     53 H           2.3367   -5.3364   -1.1634 H       1  LIG1        0.0000
     54 H           1.3468   -4.1408   -1.6706 H       1  LIG1        0.0000
     55 H           2.6984   -4.4955   -2.5157 H       1  LIG1        0.0000
     56 H           3.8310   -4.5884    0.9083 H       1  LIG1        0.0000
     57 H           5.2452   -3.1462    2.5637 H       1  LIG1        0.0000
     58 H           6.0582   -1.9607    1.7888 H       1  LIG1        0.0000
     59 H           4.7077   -1.6059    2.6355 H       1  LIG1        0.0000
@<TRIPOS>BOND
     1     1     2    1
     2     2     3    1
     3     3     4    2
     4     3     5    1
     5     5     6    1
     6     6     7   am
     7     7     8    2
     8     7     9    1
     9     9    10   ar
    10    10    11   ar
    11    11    12   ar
    12    12    13   ar
    13    13    14   ar
    14    14     9   ar
    15     5    15    1
    16    15    16    2
    17    16    17    1
    18    17    18    2
    19    18    19    1
    20    19    20    1
    21    20    21    2
    22    21    22    1
    23    22    23   ar
    24    23    24   ar
    25    24    25   ar
    26    25    26   ar
    27    26    27   ar
    28    27    22   ar
    29    21    28    1
    30    28    29    1
    31    29    19    2
    32    29    30    1
    33    30    31    1
    34    31    32    2
    35    32    33    1
    36    32    34    1
    37    34    35    2
    38    35    30    1
    39    35    36    1
    40    18    37    1
    41    37    15    1
    42     5    38    1
    43     1    39    1
    44     1    40    1
    45     1    41    1
    46     6    42    1
    47    10    43    1
    48    11    44    1
    49    12    45    1
    50    13    46    1
    51    14    47    1
    52    23    48    1
    53    24    49    1
    54    25    50    1
    55    26    51    1
    56    27    52    1
    57    33    53    1
    58    33    54    1
    59    33    55    1
    60    34    56    1
    61    36    57    1
    62    36    58    1
    63    36    59    1
