@<TRIPOS>MOLECULE
*****
 59 63 0 0 0
SMALL
USER_CHARGES

@<TRIPOS>ATOM
      1 C1         -4.6357    0.9828   -0.8245 C.3     1  LIG1        0.0000
      2 O2         -3.5639    1.8908   -0.6163 O.3     1  LIG1        0.0000
      3 C3         -2.4386    1.3528   -0.2159 C.2     1  LIG1        0.0000
      4 O4         -2.3664    0.1665   -0.0499 O.2     1  LIG1        0.0000
      5 C5         -1.2244    2.2311    0.0383 C.3     1  LIG1        0.0000
      6 N6         -1.1441    3.2686   -1.0000 N.am    1  LIG1        0.0000
      7 C7         -1.1889    4.5925   -0.6503 C.2     1  LIG1        0.0000
      8 O8         -1.2938    4.9051    0.5035 O.2     1  LIG1        0.0000
      9 C9         -1.1097    5.6161   -1.6747 C.3     1  LIG1        0.0000
     10 C10        -0.7391    6.9108   -1.3266 C.3     1  LIG1        0.0000
     11 C11        -0.6663    7.8864   -2.3154 C.3     1  LIG1        0.0000
     12 C12        -0.9624    7.5627   -3.6360 C.3     1  LIG1        0.0000
     13 C13        -1.3319    6.2652   -3.9751 C.3     1  LIG1        0.0000
     14 C14        -1.4077    5.2836   -2.9921 C.3     1  LIG1        0.0000
     15 C15         0.0345    1.3787    0.0016 C.2     1  LIG1        0.0000
     16 N16         0.0672    0.0683   -0.0305 N.2     1  LIG1        0.0000
     17 N17         1.3285   -0.2980   -0.0563 N.2     1  LIG1        0.0000
     18 C18         2.0564    0.7932   -0.0407 C.2     1  LIG1        0.0000
     19 C19         3.5075    0.8351   -0.0594 C.2     1  LIG1        0.0000
     20 N20         4.3083    1.5443    0.7879 N.2     1  LIG1        0.0000
     21 C21         5.5424    1.3037    0.4126 C.2     1  LIG1        0.0000
     22 C22         6.7148    1.8759    1.0461 C.3     1  LIG1        0.0000
     23 C23         7.9807    1.5612    0.5631 C.3     1  LIG1        0.0000
     24 C24         9.0996    2.1139    1.1772 C.3     1  LIG1        0.0000
     25 C25         8.9460    2.9717    2.2622 C.3     1  LIG1        0.0000
     26 C26         7.6762    3.2811    2.7384 C.3     1  LIG1        0.0000
     27 C27         6.5517    2.7320    2.1303 C.3     1  LIG1        0.0000
     28 O28         5.5540    0.4808   -0.6181 O.2     1  LIG1        0.0000
     29 C29         4.3187    0.1709   -0.9279 C.2     1  LIG1        0.0000
     30 N30         3.9218   -0.6801   -1.9677 N.pl3   1  LIG1        0.0000
     31 N31         4.2482   -1.9452   -2.0808 N.2     1  LIG1        0.0000
     32 C32         3.7129   -2.4510   -3.1668 C.2     1  LIG1        0.0000
     33 C33         3.8586   -3.8851   -3.6470 C.3     1  LIG1        0.0000
     34 C34         2.9795   -1.4315   -3.8074 C.2     1  LIG1        0.0000
     35 C35         3.1352   -0.3327   -3.0232 C.2     1  LIG1        0.0000
     36 C36         2.5337    1.0389   -3.2826 C.3     1  LIG1        0.0000
     37 O37         1.2649    1.8378   -0.0033 O.2     1  LIG1        0.0000
     38 H          -1.3080    2.6637    0.9360 H       1  LIG1        0.0000
     39 H          -5.4451    1.4863   -1.1267 H       1  LIG1        0.0000
     40 H          -4.3770    0.3167   -1.5241 H       1  LIG1        0.0000
     41 H          -4.8396    0.5061    0.0305 H       1  LIG1        0.0000
     42 H          -1.0567    3.0081   -1.9615 H       1  LIG1        0.0000
     43 H          -0.5272    7.1377   -0.3760 H       1  LIG1        0.0000
     44 H          -0.4012    8.8207   -2.0771 H       1  LIG1        0.0000
     45 H          -0.9092    8.2663   -4.3447 H       1  LIG1        0.0000
     46 H          -1.5431    6.0380   -4.9257 H       1  LIG1        0.0000
     47 H          -1.6735    4.3494   -3.2300 H       1  LIG1        0.0000
     48 H           8.0852    0.9444   -0.2170 H       1  LIG1        0.0000
     49 H          10.0148    1.8949    0.8389 H       1  LIG1        0.0000
     50 H           9.7524    3.3676    2.7016 H       1  LIG1        0.0000
     51 H           7.5715    3.8985    3.5181 H       1  LIG1        0.0000
     52 H           5.6365    2.9504    2.4689 H       1  LIG1        0.0000
     53 H           3.3503   -4.0042   -4.5000 H       1  LIG1        0.0000
     54 H           4.8252   -4.0875   -3.8040 H       1  LIG1        0.0000
     55 H           3.4960   -4.5074   -2.9533 H       1  LIG1        0.0000
     56 H           2.4567   -1.5019   -4.6569 H       1  LIG1        0.0000
     57 H           1.9999    1.0144   -4.1278 H       1  LIG1        0.0000
     58 H           1.9386    1.2917   -2.5197 H       1  LIG1        0.0000
     59 H           3.2669    1.7132   -3.3709 H       1  LIG1        0.0000
@<TRIPOS>BOND
     1     1     2    1
     2     2     3    1
     3     3     4    2
     4     3     5    1
     5     5     6    1
     6     6     7   am
     7     7     8    2
     8     7     9    1
     9     9    10   ar
    10    10    11   ar
    11    11    12   ar
    12    12    13   ar
    13    13    14   ar
    14    14     9   ar
    15     5    15    1
    16    15    16    2
    17    16    17    1
    18    17    18    2
    19    18    19    1
    20    19    20    1
    21    20    21    2
    22    21    22    1
    23    22    23   ar
    24    23    24   ar
    25    24    25   ar
    26    25    26   ar
    27    26    27   ar
    28    27    22   ar
    29    21    28    1
    30    28    29    1
    31    29    19    2
    32    29    30    1
    33    30    31    1
    34    31    32    2
    35    32    33    1
    36    32    34    1
    37    34    35    2
    38    35    30    1
    39    35    36    1
    40    18    37    1
    41    37    15    1
    42     5    38    1
    43     1    39    1
    44     1    40    1
    45     1    41    1
    46     6    42    1
    47    10    43    1
    48    11    44    1
    49    12    45    1
    50    13    46    1
    51    14    47    1
    52    23    48    1
    53    24    49    1
    54    25    50    1
    55    26    51    1
    56    27    52    1
    57    33    53    1
    58    33    54    1
    59    33    55    1
    60    34    56    1
    61    36    57    1
    62    36    58    1
    63    36    59    1
