@<TRIPOS>MOLECULE

  22   23
SMALL
USER_CHARGES
@<TRIPOS>ATOM
   1 C1          -1.0706     2.0190     1.0910 C.3          1    LIG   0.0000
   2 O2           0.3450     2.1300     1.1009 O.3          1    LIG   0.0000
   3 C3           1.0000     1.0000     1.0000 C.2          1    LIG   0.0000
   4 O4           0.4000    -0.0351     0.9076 O.2          1    LIG   0.0000
   5 C5           2.4456     1.0000     1.0000 C.2          1    LIG   0.0000
   6 C6           3.0736     2.2063     1.1118 C.2          1    LIG   0.0000
   7 S7           4.7384     1.8398     1.0810 S.3          1    LIG   0.0000
   8 C8           4.6290     0.1488     0.9270 C.ar         1    LIG   0.0000
   9 C9           5.6885    -0.7405     0.8535 C.ar         1    LIG   0.0000
  10 C10          5.3519    -2.0804     0.7340 C.ar         1    LIG   0.0000
  11 O11          6.3672    -2.9649     0.6600 O.3          1    LIG   0.0000
  12 C12          4.0121    -2.4541     0.6953 C.ar         1    LIG   0.0000
  13 C13          3.0003    -1.5025     0.7761 C.ar         1    LIG   0.0000
  14 C14          3.2839    -0.1458     0.8977 C.ar         1    LIG   0.0000
  15 H           -1.4769     2.9292     1.1722 H            1    LIG   0.0000
  16 H           -1.3659     1.5975     0.2336 H            1    LIG   0.0000
  17 H           -1.3659     1.4523     1.8601 H            1    LIG   0.0000
  18 H            2.6499     3.1084     1.1939 H            1    LIG   0.0000
  19 H            6.6399    -0.4343     0.8847 H            1    LIG   0.0000
  20 H            6.1737    -3.9422     0.5731 H            1    LIG   0.0000
  21 H            3.7728    -3.4211     0.6081 H            1    LIG   0.0000
  22 H            2.0463    -1.8008     0.7461 H            1    LIG   0.0000
@<TRIPOS>BOND
   1        1        2 1
   2        2        3 1
   3        3        4 2
   4        3        5 1
   5        5        6 2
   6        6        7 1
   7        7        8 1
   8        8        9 ar
   9        9       10 ar
  10       10       11 1
  11       10       12 ar
  12       12       13 ar
  13       13       14 ar
  14       14        5 1
  15       14        8 ar
  16        1       15 1
  17        1       16 1
  18        1       17 1
  19        6       18 1
  20        9       19 1
  21       11       20 1
  22       12       21 1
  23       13       22 1

@<TRIPOS>MOLECULE

  22   23
SMALL
USER_CHARGES
@<TRIPOS>ATOM
   1 C1          -1.0706     2.0190     1.0910 C.3          1    LIG   0.0000
   2 O2           0.3450     2.1300     1.1009 O.3          1    LIG   0.0000
   3 C3           1.0000     1.0000     1.0000 C.2          1    LIG   0.0000
   4 O4           0.4000    -0.0351     0.9076 O.2          1    LIG   0.0000
   5 C5           2.4456     1.0000     1.0000 C.2          1    LIG   0.0000
   6 C6           3.0736     1.9888     1.7000 C.2          1    LIG   0.0000
   7 S7           4.7384     1.6868     1.4901 S.3          1    LIG   0.0000
   8 C8           4.6290     0.2994     0.5112 C.ar         1    LIG   0.0000
   9 C9           5.6885    -0.4341     0.0028 C.ar         1    LIG   0.0000
  10 C10          5.3519    -1.5347    -0.7706 C.ar         1    LIG   0.0000
  11 O11          6.3672    -2.2637    -1.2769 O.3          1    LIG   0.0000
  12 C12          4.0121    -1.8389    -0.9909 C.ar         1    LIG   0.0000
  13 C13          3.0003    -1.0553    -0.4451 C.ar         1    LIG   0.0000
  14 C14          3.2839     0.0589     0.3385 C.ar         1    LIG   0.0000
  15 H           -1.4769     2.9292     1.1722 H            1    LIG   0.0000
  16 H           -1.3659     1.5975     0.2336 H            1    LIG   0.0000
  17 H           -1.3659     1.4523     1.8601 H            1    LIG   0.0000
  18 H            2.6499     2.7290     2.2221 H            1    LIG   0.0000
  19 H            6.6399    -0.1845     0.1830 H            1    LIG   0.0000
  20 H            6.1737    -3.0666    -1.8408 H            1    LIG   0.0000
  21 H            3.7728    -2.6328    -1.5499 H            1    LIG   0.0000
  22 H            2.0463    -1.2986    -0.6203 H            1    LIG   0.0000
@<TRIPOS>BOND
   1        1        2 1
   2        2        3 1
   3        3        4 2
   4        3        5 1
   5        5        6 2
   6        6        7 1
   7        7        8 1
   8        8        9 ar
   9        9       10 ar
  10       10       11 1
  11       10       12 ar
  12       12       13 ar
  13       13       14 ar
  14       14        5 1
  15       14        8 ar
  16        1       15 1
  17        1       16 1
  18        1       17 1
  19        6       18 1
  20        9       19 1
  21       11       20 1
  22       12       21 1
  23       13       22 1

@<TRIPOS>MOLECULE

  22   23
SMALL
USER_CHARGES
@<TRIPOS>ATOM
   1 C1          -1.0706     2.0190     1.0910 C.3          1    LIG   0.0000
   2 O2           0.3450     2.1300     1.1009 O.3          1    LIG   0.0000
   3 C3           1.0000     1.0000     1.0000 C.2          1    LIG   0.0000
   4 O4           0.4000    -0.0351     0.9076 O.2          1    LIG   0.0000
   5 C5           2.4456     1.0000     1.0000 C.2          1    LIG   0.0000
   6 C6           3.0736     2.1006     0.4937 C.2          1    LIG   0.0000
   7 S7           4.7384     1.7678     0.6503 S.3          1    LIG   0.0000
   8 C8           4.6290     0.2264     1.3624 C.ar         1    LIG   0.0000
   9 C9           5.6885    -0.5806     1.7434 C.ar         1    LIG   0.0000
  10 C10          5.3519    -1.8007     2.3098 C.ar         1    LIG   0.0000
  11 O11          6.3672    -2.6037     2.6881 O.3          1    LIG   0.0000
  12 C12          4.0121    -2.1437     2.4631 C.ar         1    LIG   0.0000
  13 C13          3.0003    -1.2791     2.0573 C.ar         1    LIG   0.0000
  14 C14          3.2839    -0.0434     1.4843 C.ar         1    LIG   0.0000
  15 H           -1.4769     2.9292     1.1722 H            1    LIG   0.0000
  16 H           -1.3659     1.5975     0.2336 H            1    LIG   0.0000
  17 H           -1.3659     1.4523     1.8601 H            1    LIG   0.0000
  18 H            2.6499     2.9229     0.1137 H            1    LIG   0.0000
  19 H            6.6399    -0.2998     1.6173 H            1    LIG   0.0000
  20 H            6.1737    -3.4935     3.1014 H            1    LIG   0.0000
  21 H            3.7728    -3.0247     2.8711 H            1    LIG   0.0000
  22 H            2.0463    -1.5525     2.1805 H            1    LIG   0.0000
@<TRIPOS>BOND
   1        1        2 1
   2        2        3 1
   3        3        4 2
   4        3        5 1
   5        5        6 2
   6        6        7 1
   7        7        8 1
   8        8        9 ar
   9        9       10 ar
  10       10       11 1
  11       10       12 ar
  12       12       13 ar
  13       13       14 ar
  14       14        5 1
  15       14        8 ar
  16        1       15 1
  17        1       16 1
  18        1       17 1
  19        6       18 1
  20        9       19 1
  21       11       20 1
  22       12       21 1
  23       13       22 1

@<TRIPOS>MOLECULE

  22   23
SMALL
USER_CHARGES
@<TRIPOS>ATOM
   1 C1          -1.0706     2.0190     1.0910 C.3          1    LIG   0.0000
   2 O2           0.3450     2.1300     1.1009 O.3          1    LIG   0.0000
   3 C3           1.0000     1.0000     1.0000 C.2          1    LIG   0.0000
   4 O4           0.4000    -0.0351     0.9076 O.2          1    LIG   0.0000
   5 C5           2.4456     1.0000     1.0000 C.2          1    LIG   0.0000
   6 C6           3.0736     1.5063     2.1006 C.2          1    LIG   0.0000
   7 S7           4.7384     1.3497     1.7678 S.3          1    LIG   0.0000
   8 C8           4.6290     0.6376     0.2264 C.ar         1    LIG   0.0000
   9 C9           5.6885     0.2566    -0.5806 C.ar         1    LIG   0.0000
  10 C10          5.3519    -0.3098    -1.8007 C.ar         1    LIG   0.0000
  11 O11          6.3672    -0.6881    -2.6037 O.3          1    LIG   0.0000
  12 C12          4.0121    -0.4631    -2.1437 C.ar         1    LIG   0.0000
  13 C13          3.0003    -0.0573    -1.2791 C.ar         1    LIG   0.0000
  14 C14          3.2839     0.5157    -0.0434 C.ar         1    LIG   0.0000
  15 H           -1.4769     2.9292     1.1722 H            1    LIG   0.0000
  16 H           -1.3659     1.5975     0.2336 H            1    LIG   0.0000
  17 H           -1.3659     1.4523     1.8601 H            1    LIG   0.0000
  18 H            2.6499     1.8863     2.9229 H            1    LIG   0.0000
  19 H            6.6399     0.3827    -0.2998 H            1    LIG   0.0000
  20 H            6.1737    -1.1014    -3.4935 H            1    LIG   0.0000
  21 H            3.7728    -0.8711    -3.0247 H            1    LIG   0.0000
  22 H            2.0463    -0.1805    -1.5525 H            1    LIG   0.0000
@<TRIPOS>BOND
   1        1        2 1
   2        2        3 1
   3        3        4 2
   4        3        5 1
   5        5        6 2
   6        6        7 1
   7        7        8 1
   8        8        9 ar
   9        9       10 ar
  10       10       11 1
  11       10       12 ar
  12       12       13 ar
  13       13       14 ar
  14       14        5 1
  15       14        8 ar
  16        1       15 1
  17        1       16 1
  18        1       17 1
  19        6       18 1
  20        9       19 1
  21       11       20 1
  22       12       21 1
  23       13       22 1

@<TRIPOS>MOLECULE

  22   23
SMALL
USER_CHARGES
@<TRIPOS>ATOM
   1 C1          -1.0706     2.0190     1.0910 C.3          1    LIG   0.0000
   2 O2           0.3450     2.1300     1.1009 O.3          1    LIG   0.0000
   3 C3           1.0000     1.0000     1.0000 C.2          1    LIG   0.0000
   4 O4           0.4000    -0.0351     0.9076 O.2          1    LIG   0.0000
   5 C5           2.4456     1.0000     1.0000 C.2          1    LIG   0.0000
   6 C6           3.0736     1.7000     0.0112 C.2          1    LIG   0.0000
   7 S7           4.7384     1.4901     0.3132 S.3          1    LIG   0.0000
   8 C8           4.6290     0.5112     1.7006 C.ar         1    LIG   0.0000
   9 C9           5.6885     0.0028     2.4341 C.ar         1    LIG   0.0000
  10 C10          5.3519    -0.7706     3.5347 C.ar         1    LIG   0.0000
  11 O11          6.3672    -1.2769     4.2637 O.3          1    LIG   0.0000
  12 C12          4.0121    -0.9909     3.8389 C.ar         1    LIG   0.0000
  13 C13          3.0003    -0.4451     3.0553 C.ar         1    LIG   0.0000
  14 C14          3.2839     0.3385     1.9411 C.ar         1    LIG   0.0000
  15 H           -1.4769     2.9292     1.1722 H            1    LIG   0.0000
  16 H           -1.3659     1.5975     0.2336 H            1    LIG   0.0000
  17 H           -1.3659     1.4523     1.8601 H            1    LIG   0.0000
  18 H            2.6499     2.2221    -0.7290 H            1    LIG   0.0000
  19 H            6.6399     0.1830     2.1845 H            1    LIG   0.0000
  20 H            6.1737    -1.8408     5.0666 H            1    LIG   0.0000
  21 H            3.7728    -1.5499     4.6328 H            1    LIG   0.0000
  22 H            2.0463    -0.6203     3.2986 H            1    LIG   0.0000
@<TRIPOS>BOND
   1        1        2 1
   2        2        3 1
   3        3        4 2
   4        3        5 1
   5        5        6 2
   6        6        7 1
   7        7        8 1
   8        8        9 ar
   9        9       10 ar
  10       10       11 1
  11       10       12 ar
  12       12       13 ar
  13       13       14 ar
  14       14        5 1
  15       14        8 ar
  16        1       15 1
  17        1       16 1
  18        1       17 1
  19        6       18 1
  20        9       19 1
  21       11       20 1
  22       12       21 1
  23       13       22 1

@<TRIPOS>MOLECULE

  22   23
SMALL
USER_CHARGES
@<TRIPOS>ATOM
   1 C1          -1.0706     2.0190     1.0910 C.3          1    LIG   0.0000
   2 O2           0.3450     2.1300     1.1009 O.3          1    LIG   0.0000
   3 C3           1.0000     1.0000     1.0000 C.2          1    LIG   0.0000
   4 O4           0.4000    -0.0351     0.9076 O.2          1    LIG   0.0000
   5 C5           2.4456     1.0000     1.0000 C.2          1    LIG   0.0000
   6 C6           3.0736    -0.2063     0.8882 C.2          1    LIG   0.0000
   7 S7           4.7384     0.1602     0.9190 S.3          1    LIG   0.0000
   8 C8           4.6290     1.8512     1.0730 C.ar         1    LIG   0.0000
   9 C9           5.6885     2.7405     1.1465 C.ar         1    LIG   0.0000
  10 C10          5.3519     4.0804     1.2660 C.ar         1    LIG   0.0000
  11 O11          6.3672     4.9649     1.3400 O.3          1    LIG   0.0000
  12 C12          4.0121     4.4541     1.3047 C.ar         1    LIG   0.0000
  13 C13          3.0003     3.5025     1.2239 C.ar         1    LIG   0.0000
  14 C14          3.2839     2.1458     1.1023 C.ar         1    LIG   0.0000
  15 H           -1.4769     2.9292     1.1722 H            1    LIG   0.0000
  16 H           -1.3659     1.5975     0.2336 H            1    LIG   0.0000
  17 H           -1.3659     1.4523     1.8601 H            1    LIG   0.0000
  18 H            2.6499    -1.1084     0.8061 H            1    LIG   0.0000
  19 H            6.6399     2.4343     1.1153 H            1    LIG   0.0000
  20 H            6.1737     5.9422     1.4269 H            1    LIG   0.0000
  21 H            3.7728     5.4211     1.3919 H            1    LIG   0.0000
  22 H            2.0463     3.8008     1.2539 H            1    LIG   0.0000
@<TRIPOS>BOND
   1        1        2 1
   2        2        3 1
   3        3        4 2
   4        3        5 1
   5        5        6 2
   6        6        7 1
   7        7        8 1
   8        8        9 ar
   9        9       10 ar
  10       10       11 1
  11       10       12 ar
  12       12       13 ar
  13       13       14 ar
  14       14        5 1
  15       14        8 ar
  16        1       15 1
  17        1       16 1
  18        1       17 1
  19        6       18 1
  20        9       19 1
  21       11       20 1
  22       12       21 1
  23       13       22 1

@<TRIPOS>MOLECULE

  22   23
SMALL
USER_CHARGES
@<TRIPOS>ATOM
   1 C1          -1.0706     2.0190     1.0910 C.3          1    LIG   0.0000
   2 O2           0.3450     2.1300     1.1009 O.3          1    LIG   0.0000
   3 C3           1.0000     1.0000     1.0000 C.2          1    LIG   0.0000
   4 O4           0.4000    -0.0351     0.9076 O.2          1    LIG   0.0000
   5 C5           2.4456     1.0000     1.0000 C.2          1    LIG   0.0000
   6 C6           3.0736     0.0112     0.3000 C.2          1    LIG   0.0000
   7 S7           4.7384     0.3132     0.5099 S.3          1    LIG   0.0000
   8 C8           4.6290     1.7006     1.4888 C.ar         1    LIG   0.0000
   9 C9           5.6885     2.4341     1.9972 C.ar         1    LIG   0.0000
  10 C10          5.3519     3.5347     2.7706 C.ar         1    LIG   0.0000
  11 O11          6.3672     4.2637     3.2769 O.3          1    LIG   0.0000
  12 C12          4.0121     3.8389     2.9909 C.ar         1    LIG   0.0000
  13 C13          3.0003     3.0553     2.4451 C.ar         1    LIG   0.0000
  14 C14          3.2839     1.9411     1.6615 C.ar         1    LIG   0.0000
  15 H           -1.4769     2.9292     1.1722 H            1    LIG   0.0000
  16 H           -1.3659     1.5975     0.2336 H            1    LIG   0.0000
  17 H           -1.3659     1.4523     1.8601 H            1    LIG   0.0000
  18 H            2.6499    -0.7290    -0.2221 H            1    LIG   0.0000
  19 H            6.6399     2.1845     1.8170 H            1    LIG   0.0000
  20 H            6.1737     5.0666     3.8408 H            1    LIG   0.0000
  21 H            3.7728     4.6328     3.5499 H            1    LIG   0.0000
  22 H            2.0463     3.2986     2.6203 H            1    LIG   0.0000
@<TRIPOS>BOND
   1        1        2 1
   2        2        3 1
   3        3        4 2
   4        3        5 1
   5        5        6 2
   6        6        7 1
   7        7        8 1
   8        8        9 ar
   9        9       10 ar
  10       10       11 1
  11       10       12 ar
  12       12       13 ar
  13       13       14 ar
  14       14        5 1
  15       14        8 ar
  16        1       15 1
  17        1       16 1
  18        1       17 1
  19        6       18 1
  20        9       19 1
  21       11       20 1
  22       12       21 1
  23       13       22 1

@<TRIPOS>MOLECULE

  22   23
SMALL
USER_CHARGES
@<TRIPOS>ATOM
   1 C1          -1.0706     2.0190     1.0910 C.3          1    LIG   0.0000
   2 O2           0.3450     2.1300     1.1009 O.3          1    LIG   0.0000
   3 C3           1.0000     1.0000     1.0000 C.2          1    LIG   0.0000
   4 O4           0.4000    -0.0351     0.9076 O.2          1    LIG   0.0000
   5 C5           2.4456     1.0000     1.0000 C.2          1    LIG   0.0000
   6 C6           3.0736    -0.1006     1.5063 C.2          1    LIG   0.0000
   7 S7           4.7384     0.2322     1.3497 S.3          1    LIG   0.0000
   8 C8           4.6290     1.7736     0.6376 C.ar         1    LIG   0.0000
   9 C9           5.6885     2.5806     0.2566 C.ar         1    LIG   0.0000
  10 C10          5.3519     3.8007    -0.3098 C.ar         1    LIG   0.0000
  11 O11          6.3672     4.6037    -0.6881 O.3          1    LIG   0.0000
  12 C12          4.0121     4.1437    -0.4631 C.ar         1    LIG   0.0000
  13 C13          3.0003     3.2791    -0.0573 C.ar         1    LIG   0.0000
  14 C14          3.2839     2.0434     0.5157 C.ar         1    LIG   0.0000
  15 H           -1.4769     2.9292     1.1722 H            1    LIG   0.0000
  16 H           -1.3659     1.5975     0.2336 H            1    LIG   0.0000
  17 H           -1.3659     1.4523     1.8601 H            1    LIG   0.0000
  18 H            2.6499    -0.9229     1.8863 H            1    LIG   0.0000
  19 H            6.6399     2.2998     0.3827 H            1    LIG   0.0000
  20 H            6.1737     5.4935    -1.1014 H            1    LIG   0.0000
  21 H            3.7728     5.0247    -0.8711 H            1    LIG   0.0000
  22 H            2.0463     3.5525    -0.1805 H            1    LIG   0.0000
@<TRIPOS>BOND
   1        1        2 1
   2        2        3 1
   3        3        4 2
   4        3        5 1
   5        5        6 2
   6        6        7 1
   7        7        8 1
   8        8        9 ar
   9        9       10 ar
  10       10       11 1
  11       10       12 ar
  12       12       13 ar
  13       13       14 ar
  14       14        5 1
  15       14        8 ar
  16        1       15 1
  17        1       16 1
  18        1       17 1
  19        6       18 1
  20        9       19 1
  21       11       20 1
  22       12       21 1
  23       13       22 1

@<TRIPOS>MOLECULE

  22   23
SMALL
USER_CHARGES
@<TRIPOS>ATOM
   1 C1          -1.0706     2.0190     1.0910 C.3          1    LIG   0.0000
   2 O2           0.3450     2.1300     1.1009 O.3          1    LIG   0.0000
   3 C3           1.0000     1.0000     1.0000 C.2          1    LIG   0.0000
   4 O4           0.4000    -0.0351     0.9076 O.2          1    LIG   0.0000
   5 C5           2.4456     1.0000     1.0000 C.2          1    LIG   0.0000
   6 C6           3.0736     0.4937    -0.1006 C.2          1    LIG   0.0000
   7 S7           4.7384     0.6503     0.2322 S.3          1    LIG   0.0000
   8 C8           4.6290     1.3624     1.7736 C.ar         1    LIG   0.0000
   9 C9           5.6885     1.7434     2.5806 C.ar         1    LIG   0.0000
  10 C10          5.3519     2.3098     3.8007 C.ar         1    LIG   0.0000
  11 O11          6.3672     2.6881     4.6037 O.3          1    LIG   0.0000
  12 C12          4.0121     2.4631     4.1437 C.ar         1    LIG   0.0000
  13 C13          3.0003     2.0573     3.2791 C.ar         1    LIG   0.0000
  14 C14          3.2839     1.4843     2.0434 C.ar         1    LIG   0.0000
  15 H           -1.4769     2.9292     1.1722 H            1    LIG   0.0000
  16 H           -1.3659     1.5975     0.2336 H            1    LIG   0.0000
  17 H           -1.3659     1.4523     1.8601 H            1    LIG   0.0000
  18 H            2.6499     0.1137    -0.9229 H            1    LIG   0.0000
  19 H            6.6399     1.6173     2.2998 H            1    LIG   0.0000
  20 H            6.1737     3.1014     5.4935 H            1    LIG   0.0000
  21 H            3.7728     2.8711     5.0247 H            1    LIG   0.0000
  22 H            2.0463     2.1805     3.5525 H            1    LIG   0.0000
@<TRIPOS>BOND
   1        1        2 1
   2        2        3 1
   3        3        4 2
   4        3        5 1
   5        5        6 2
   6        6        7 1
   7        7        8 1
   8        8        9 ar
   9        9       10 ar
  10       10       11 1
  11       10       12 ar
  12       12       13 ar
  13       13       14 ar
  14       14        5 1
  15       14        8 ar
  16        1       15 1
  17        1       16 1
  18        1       17 1
  19        6       18 1
  20        9       19 1
  21       11       20 1
  22       12       21 1
  23       13       22 1

@<TRIPOS>MOLECULE

  22   23
SMALL
USER_CHARGES
@<TRIPOS>ATOM
   1 C1          -1.0706     2.0190     1.0910 C.3          1    LIG   0.0000
   2 O2           0.3450     2.1300     1.1009 O.3          1    LIG   0.0000
   3 C3           1.0000     1.0000     1.0000 C.2          1    LIG   0.0000
   4 O4           0.4000    -0.0351     0.9076 O.2          1    LIG   0.0000
   5 C5           2.4456     1.0000     1.0000 C.2          1    LIG   0.0000
   6 C6           3.0736     0.3000     1.9888 C.2          1    LIG   0.0000
   7 S7           4.7384     0.5099     1.6868 S.3          1    LIG   0.0000
   8 C8           4.6290     1.4888     0.2994 C.ar         1    LIG   0.0000
   9 C9           5.6885     1.9972    -0.4341 C.ar         1    LIG   0.0000
  10 C10          5.3519     2.7706    -1.5347 C.ar         1    LIG   0.0000
  11 O11          6.3672     3.2769    -2.2637 O.3          1    LIG   0.0000
  12 C12          4.0121     2.9909    -1.8389 C.ar         1    LIG   0.0000
  13 C13          3.0003     2.4451    -1.0553 C.ar         1    LIG   0.0000
  14 C14          3.2839     1.6615     0.0589 C.ar         1    LIG   0.0000
  15 H           -1.4769     2.9292     1.1722 H            1    LIG   0.0000
  16 H           -1.3659     1.5975     0.2336 H            1    LIG   0.0000
  17 H           -1.3659     1.4523     1.8601 H            1    LIG   0.0000
  18 H            2.6499    -0.2221     2.7290 H            1    LIG   0.0000
  19 H            6.6399     1.8170    -0.1845 H            1    LIG   0.0000
  20 H            6.1737     3.8408    -3.0666 H            1    LIG   0.0000
  21 H            3.7728     3.5499    -2.6328 H            1    LIG   0.0000
  22 H            2.0463     2.6203    -1.2986 H            1    LIG   0.0000
@<TRIPOS>BOND
   1        1        2 1
   2        2        3 1
   3        3        4 2
   4        3        5 1
   5        5        6 2
   6        6        7 1
   7        7        8 1
   8        8        9 ar
   9        9       10 ar
  10       10       11 1
  11       10       12 ar
  12       12       13 ar
  13       13       14 ar
  14       14        5 1
  15       14        8 ar
  16        1       15 1
  17        1       16 1
  18        1       17 1
  19        6       18 1
  20        9       19 1
  21       11       20 1
  22       12       21 1
  23       13       22 1

