@<TRIPOS>MOLECULE
*****
 22 23 0 0 0
SMALL
USER_CHARGES

@<TRIPOS>ATOM
      1 C1         -1.0706    2.0190    1.0910 C.3     1  LIG1        0.0000
      2 O2          0.3450    2.1300    1.1009 O.3     1  LIG1        0.0000
      3 C3          1.0000    1.0000    1.0000 C.2     1  LIG1        0.0000
      4 O4          0.4000   -0.0351    0.9076 O.2     1  LIG1        0.0000
      5 C5          2.4456    1.0000    1.0000 C.2     1  LIG1        0.0000
      6 C6          3.0736   -0.2063    0.8882 C.2     1  LIG1        0.0000
      7 S7          4.7384    0.1602    0.9190 S.3     1  LIG1        0.0000
      8 C8          4.6290    1.8512    1.0730 C.3     1  LIG1        0.0000
      9 C9          5.6885    2.7405    1.1465 C.3     1  LIG1        0.0000
     10 C10         5.3519    4.0804    1.2660 C.3     1  LIG1        0.0000
     11 O11         6.3672    4.9649    1.3400 O.2     1  LIG1        0.0000
     12 C12         4.0121    4.4541    1.3047 C.3     1  LIG1        0.0000
     13 C13         3.0003    3.5025    1.2239 C.3     1  LIG1        0.0000
     14 C14         3.2839    2.1458    1.1023 C.3     1  LIG1        0.0000
     15 H          -1.4769    2.9292    1.1722 H       1  LIG1        0.0000
     16 H          -1.3659    1.5975    0.2336 H       1  LIG1        0.0000
     17 H          -1.3659    1.4523    1.8601 H       1  LIG1        0.0000
     18 H           2.6499   -1.1084    0.8061 H       1  LIG1        0.0000
     19 H           6.6399    2.4343    1.1153 H       1  LIG1        0.0000
     20 H           6.1737    5.9422    1.4269 H       1  LIG1        0.0000
     21 H           3.7728    5.4211    1.3919 H       1  LIG1        0.0000
     22 H           2.0463    3.8008    1.2539 H       1  LIG1        0.0000
@<TRIPOS>BOND
     1     1     2    1
     2     2     3    1
     3     3     4    2
     4     3     5    1
     5     5     6    2
     6     6     7    1
     7     7     8    1
     8     8     9   ar
     9     9    10   ar
    10    10    11    1
    11    10    12   ar
    12    12    13   ar
    13    13    14   ar
    14    14     5    1
    15    14     8   ar
    16     1    15    1
    17     1    16    1
    18     1    17    1
    19     6    18    1
    20     9    19    1
    21    11    20    1
    22    12    21    1
    23    13    22    1
