@<TRIPOS>MOLECULE

  63   66
SMALL
USER_CHARGES
@<TRIPOS>ATOM
   1 C1          -6.9491     3.3214     1.8465 C.3          1    LIG   0.0000
   2 C2          -5.5015     2.9585     1.5582 C.3          1    LIG   0.0000
   3 O3          -4.9503     2.2838     2.6795 O.3          1    LIG   0.0000
   4 C4          -3.6612     1.9039     2.5532 C.ar         1    LIG   0.0000
   5 C5          -3.0374     1.2363     3.6021 C.ar         1    LIG   0.0000
   6 C6          -1.7092     0.8465     3.4626 C.ar         1    LIG   0.0000
   7 C7          -1.0222     1.1255     2.2854 C.ar         1    LIG   0.0000
   8 N8           0.3150     0.7299     2.1553 N.am         1    LIG   0.0000
   9 C9           1.0000     1.0000     1.0000 C.2          1    LIG   0.0000
  10 O10          0.4000     1.2366    -0.0119 O.2          1    LIG   0.0000
  11 N11          2.4053     1.0000     1.0000 N.am         1    LIG   0.0000
  12 C12          3.0792     1.2998    -0.2708 C.3          1    LIG   0.0000
  13 C13          4.2638     0.3581    -0.4124 C.2          1    LIG   0.0000
  14 O14          4.6588     0.1144    -1.5381 O.2          1    LIG   0.0000
  15 N15          4.8500    -0.2020     0.7261 N.am         1    LIG   0.0000
  16 C16          5.9544    -1.1538     0.5314 C.3          1    LIG   0.0000
  17 C17          5.3950    -2.5625     0.4166 C.2          1    LIG   0.0000
  18 O18          4.2113    -2.7457     0.4894 O.2          1    LIG   0.0000
  19 N19          6.2421    -3.6229     0.2299 N.am         1    LIG   0.0000
  20 C20          5.7267    -4.9204     0.1242 C.ar         1    LIG   0.0000
  21 C21          4.3990    -5.0765    -0.2605 C.ar         1    LIG   0.0000
  22 C22          3.8587    -6.3532    -0.3731 C.ar         1    LIG   0.0000
  23 C23          4.6454    -7.4677    -0.1016 C.ar         1    LIG   0.0000
  24 C24          5.9725    -7.3053     0.2818 C.ar         1    LIG   0.0000
  25 C25          6.7990    -8.5486     0.5689 C.3          1    LIG   0.0000
  26 C26          6.5199    -6.0305     0.3970 C.ar         1    LIG   0.0000
  27 C27          7.9696    -5.8442     0.8160 C.3          1    LIG   0.0000
  28 C28          4.3986     0.1265     2.0128 C.ar         1    LIG   0.0000
  29 C29          5.1449    -0.1347     3.1586 C.ar         1    LIG   0.0000
  30 C30          4.6859     0.1861     4.4324 C.ar         1    LIG   0.0000
  31 C31          3.4407     0.7882     4.5719 C.ar         1    LIG   0.0000
  32 C32          2.6943     1.0547     3.4303 C.ar         1    LIG   0.0000
  33 C33          3.1527     0.7299     2.1552 C.ar         1    LIG   0.0000
  34 C34         -1.6546     1.7934     1.2422 C.ar         1    LIG   0.0000
  35 C35         -2.9821     2.1867     1.3724 C.ar         1    LIG   0.0000
  36 H           -7.3372     3.7965     1.0568 H            1    LIG   0.0000
  37 H           -7.4725     2.4882     2.0246 H            1    LIG   0.0000
  38 H           -6.9898     3.9183     2.6478 H            1    LIG   0.0000
  39 H           -5.4607     2.3616     0.7569 H            1    LIG   0.0000
  40 H           -4.9780     3.7918     1.3801 H            1    LIG   0.0000
  41 H           -3.5372     1.0391     4.4454 H            1    LIG   0.0000
  42 H           -1.2482     0.3658     4.2085 H            1    LIG   0.0000
  43 H            0.7698     0.2502     2.9057 H            1    LIG   0.0000
  44 H            3.3982     2.2475    -0.2696 H            1    LIG   0.0000
  45 H            2.4446     1.1626    -1.0313 H            1    LIG   0.0000
  46 H            6.5778    -1.1053     1.3118 H            1    LIG   0.0000
  47 H            6.4499    -0.9227    -0.3059 H            1    LIG   0.0000
  48 H            7.2285    -3.4701     0.1692 H            1    LIG   0.0000
  49 H            3.8353    -4.2739    -0.4552 H            1    LIG   0.0000
  50 H            2.9046    -6.4698    -0.6492 H            1    LIG   0.0000
  51 H            4.2569    -8.3856    -0.1821 H            1    LIG   0.0000
  52 H            6.2348    -9.3628     0.4322 H            1    LIG   0.0000
  53 H            7.5829    -8.5783    -0.0514 H            1    LIG   0.0000
  54 H            7.1230    -8.5224     1.5145 H            1    LIG   0.0000
  55 H            8.3892    -6.7386     0.9714 H            1    LIG   0.0000
  56 H            8.4664    -5.3640     0.0932 H            1    LIG   0.0000
  57 H            8.0066    -5.3077     1.6591 H            1    LIG   0.0000
  58 H            6.0413    -0.5676     3.0630 H            1    LIG   0.0000
  59 H            5.2447    -0.0139     5.2372 H            1    LIG   0.0000
  60 H            3.0884     1.0253     5.4773 H            1    LIG   0.0000
  61 H            1.8007     1.4930     3.5270 H            1    LIG   0.0000
  62 H           -1.1550     1.9907     0.3988 H            1    LIG   0.0000
  63 H           -3.4431     2.6671     0.6263 H            1    LIG   0.0000
@<TRIPOS>BOND
   1        1        2 1
   2        2        3 1
   3        3        4 1
   4        4        5 ar
   5        5        6 ar
   6        6        7 ar
   7        7        8 1
   8        8        9 am
   9        9       10 2
  10        9       11 am
  11       11       12 1
  12       12       13 1
  13       13       14 2
  14       13       15 am
  15       15       16 1
  16       16       17 1
  17       17       18 2
  18       17       19 am
  19       19       20 1
  20       20       21 ar
  21       21       22 ar
  22       22       23 ar
  23       23       24 ar
  24       24       25 1
  25       24       26 ar
  26       26       20 ar
  27       26       27 1
  28       15       28 1
  29       28       29 ar
  30       29       30 ar
  31       30       31 ar
  32       31       32 ar
  33       32       33 ar
  34       33       28 ar
  35       33       11 1
  36        7       34 ar
  37       34       35 ar
  38       35        4 ar
  39        1       36 1
  40        1       37 1
  41        1       38 1
  42        2       39 1
  43        2       40 1
  44        5       41 1
  45        6       42 1
  46        8       43 1
  47       12       44 1
  48       12       45 1
  49       16       46 1
  50       16       47 1
  51       19       48 1
  52       21       49 1
  53       22       50 1
  54       23       51 1
  55       25       52 1
  56       25       53 1
  57       25       54 1
  58       27       55 1
  59       27       56 1
  60       27       57 1
  61       29       58 1
  62       30       59 1
  63       31       60 1
  64       32       61 1
  65       34       62 1
  66       35       63 1

@<TRIPOS>MOLECULE

  63   66
SMALL
USER_CHARGES
@<TRIPOS>ATOM
   1 C1          -4.8469     1.8425     5.0325 C.3          1    LIG   0.0000
   2 C2          -5.3111     2.8047     3.9513 C.3          1    LIG   0.0000
   3 O3          -4.9470     2.2958     2.6766 O.3          1    LIG   0.0000
   4 C4          -3.6585     1.9143     2.5496 C.ar         1    LIG   0.0000
   5 C5          -2.7084     2.4010     3.4416 C.ar         1    LIG   0.0000
   6 C6          -1.3829     2.0011     3.3046 C.ar         1    LIG   0.0000
   7 C7          -1.0222     1.1255     2.2854 C.ar         1    LIG   0.0000
   8 N8           0.3150     0.7299     2.1553 N.am         1    LIG   0.0000
   9 C9           1.0000     1.0000     1.0000 C.2          1    LIG   0.0000
  10 O10          0.4000     1.2366    -0.0119 O.2          1    LIG   0.0000
  11 N11          2.4053     1.0000     1.0000 N.am         1    LIG   0.0000
  12 C12          3.0792     1.2998    -0.2708 C.3          1    LIG   0.0000
  13 C13          4.2638     0.3581    -0.4124 C.2          1    LIG   0.0000
  14 O14          4.6588     0.1144    -1.5381 O.2          1    LIG   0.0000
  15 N15          4.8500    -0.2020     0.7261 N.am         1    LIG   0.0000
  16 C16          5.9544    -1.1538     0.5314 C.3          1    LIG   0.0000
  17 C17          5.3950    -2.5625     0.4166 C.2          1    LIG   0.0000
  18 O18          4.2113    -2.7457     0.4894 O.2          1    LIG   0.0000
  19 N19          6.2421    -3.6229     0.2299 N.am         1    LIG   0.0000
  20 C20          5.7267    -4.9204     0.1242 C.ar         1    LIG   0.0000
  21 C21          4.8329    -5.1963    -0.9054 C.ar         1    LIG   0.0000
  22 C22          4.3032    -6.4758    -1.0352 C.ar         1    LIG   0.0000
  23 C23          4.6680    -7.4737    -0.1376 C.ar         1    LIG   0.0000
  24 C24          5.5628    -7.1921     0.8893 C.ar         1    LIG   0.0000
  25 C25          5.9366    -8.3104     1.8490 C.3          1    LIG   0.0000
  26 C26          6.0966    -5.9136     1.0257 C.ar         1    LIG   0.0000
  27 C27          7.0750    -5.5973     2.1457 C.3          1    LIG   0.0000
  28 C28          4.3986     0.1265     2.0128 C.ar         1    LIG   0.0000
  29 C29          5.1449    -0.1347     3.1586 C.ar         1    LIG   0.0000
  30 C30          4.6859     0.1861     4.4324 C.ar         1    LIG   0.0000
  31 C31          3.4407     0.7882     4.5719 C.ar         1    LIG   0.0000
  32 C32          2.6943     1.0547     3.4303 C.ar         1    LIG   0.0000
  33 C33          3.1527     0.7299     2.1552 C.ar         1    LIG   0.0000
  34 C34         -1.9794     0.6443     1.3986 C.ar         1    LIG   0.0000
  35 C35         -3.3068     1.0383     1.5278 C.ar         1    LIG   0.0000
  36 H           -5.1033     2.2009     5.9302 H            1    LIG   0.0000
  37 H           -5.2789     0.9514     4.8936 H            1    LIG   0.0000
  38 H           -3.8531     1.7421     4.9851 H            1    LIG   0.0000
  39 H           -6.3049     2.9051     3.9987 H            1    LIG   0.0000
  40 H           -4.8791     3.6958     4.0902 H            1    LIG   0.0000
  41 H           -2.9748     3.0301     4.1718 H            1    LIG   0.0000
  42 H           -0.6895     2.3431     3.9387 H            1    LIG   0.0000
  43 H            0.7698     0.2502     2.9057 H            1    LIG   0.0000
  44 H            3.3982     2.2475    -0.2696 H            1    LIG   0.0000
  45 H            2.4446     1.1626    -1.0313 H            1    LIG   0.0000
  46 H            6.5778    -1.1053     1.3118 H            1    LIG   0.0000
  47 H            6.4499    -0.9227    -0.3059 H            1    LIG   0.0000
  48 H            7.2285    -3.4701     0.1692 H            1    LIG   0.0000
  49 H            4.5720    -4.4774    -1.5497 H            1    LIG   0.0000
  50 H            3.6603    -6.6783    -1.7739 H            1    LIG   0.0000
  51 H            4.2870    -8.3936    -0.2305 H            1    LIG   0.0000
  52 H            5.4547    -9.1473     1.5896 H            1    LIG   0.0000
  53 H            6.9233    -8.4680     1.8092 H            1    LIG   0.0000
  54 H            5.6777    -8.0515     2.7796 H            1    LIG   0.0000
  55 H            7.2287    -6.4182     2.6957 H            1    LIG   0.0000
  56 H            7.9426    -5.2913     1.7539 H            1    LIG   0.0000
  57 H            6.6971    -4.8744     2.7242 H            1    LIG   0.0000
  58 H            6.0413    -0.5676     3.0630 H            1    LIG   0.0000
  59 H            5.2447    -0.0139     5.2372 H            1    LIG   0.0000
  60 H            3.0884     1.0253     5.4773 H            1    LIG   0.0000
  61 H            1.8007     1.4930     3.5270 H            1    LIG   0.0000
  62 H           -1.7132     0.0152     0.6682 H            1    LIG   0.0000
  63 H           -4.0002     0.6960     0.8937 H            1    LIG   0.0000
@<TRIPOS>BOND
   1        1        2 1
   2        2        3 1
   3        3        4 1
   4        4        5 ar
   5        5        6 ar
   6        6        7 ar
   7        7        8 1
   8        8        9 am
   9        9       10 2
  10        9       11 am
  11       11       12 1
  12       12       13 1
  13       13       14 2
  14       13       15 am
  15       15       16 1
  16       16       17 1
  17       17       18 2
  18       17       19 am
  19       19       20 1
  20       20       21 ar
  21       21       22 ar
  22       22       23 ar
  23       23       24 ar
  24       24       25 1
  25       24       26 ar
  26       26       20 ar
  27       26       27 1
  28       15       28 1
  29       28       29 ar
  30       29       30 ar
  31       30       31 ar
  32       31       32 ar
  33       32       33 ar
  34       33       28 ar
  35       33       11 1
  36        7       34 ar
  37       34       35 ar
  38       35        4 ar
  39        1       36 1
  40        1       37 1
  41        1       38 1
  42        2       39 1
  43        2       40 1
  44        5       41 1
  45        6       42 1
  46        8       43 1
  47       12       44 1
  48       12       45 1
  49       16       46 1
  50       16       47 1
  51       19       48 1
  52       21       49 1
  53       22       50 1
  54       23       51 1
  55       25       52 1
  56       25       53 1
  57       25       54 1
  58       27       55 1
  59       27       56 1
  60       27       57 1
  61       29       58 1
  62       30       59 1
  63       31       60 1
  64       32       61 1
  65       34       62 1
  66       35       63 1

@<TRIPOS>MOLECULE

  63   66
SMALL
USER_CHARGES
@<TRIPOS>ATOM
   1 C1          -6.9491     3.3214     1.8465 C.3          1    LIG   0.0000
   2 C2          -5.5015     2.9585     1.5582 C.3          1    LIG   0.0000
   3 O3          -4.9503     2.2838     2.6795 O.3          1    LIG   0.0000
   4 C4          -3.6612     1.9039     2.5532 C.ar         1    LIG   0.0000
   5 C5          -3.0374     1.2363     3.6021 C.ar         1    LIG   0.0000
   6 C6          -1.7092     0.8465     3.4626 C.ar         1    LIG   0.0000
   7 C7          -1.0222     1.1255     2.2854 C.ar         1    LIG   0.0000
   8 N8           0.3150     0.7299     2.1553 N.am         1    LIG   0.0000
   9 C9           1.0000     1.0000     1.0000 C.2          1    LIG   0.0000
  10 O10          0.4000     1.2366    -0.0119 O.2          1    LIG   0.0000
  11 N11          2.4053     1.0000     1.0000 N.am         1    LIG   0.0000
  12 C12          3.0792     1.2998    -0.2708 C.3          1    LIG   0.0000
  13 C13          4.2638     0.3581    -0.4124 C.2          1    LIG   0.0000
  14 O14          4.6588     0.1144    -1.5381 O.2          1    LIG   0.0000
  15 N15          4.8500    -0.2020     0.7261 N.am         1    LIG   0.0000
  16 C16          5.9544    -1.1538     0.5314 C.3          1    LIG   0.0000
  17 C17          5.3950    -2.5625     0.4166 C.2          1    LIG   0.0000
  18 O18          4.2113    -2.7457     0.4894 O.2          1    LIG   0.0000
  19 N19          6.2421    -3.6229     0.2299 N.am         1    LIG   0.0000
  20 C20          5.7267    -4.9204     0.1242 C.ar         1    LIG   0.0000
  21 C21          6.1330    -5.8723     1.0537 C.ar         1    LIG   0.0000
  22 C22          5.6390    -7.1701     0.9736 C.ar         1    LIG   0.0000
  23 C23          4.7422    -7.5117    -0.0332 C.ar         1    LIG   0.0000
  24 C24          4.3390    -6.5554    -0.9592 C.ar         1    LIG   0.0000
  25 C25          3.3570    -6.9687    -2.0438 C.3          1    LIG   0.0000
  26 C26          4.8297    -5.2547    -0.8854 C.ar         1    LIG   0.0000
  27 C27          4.3944    -4.2035    -1.8941 C.3          1    LIG   0.0000
  28 C28          4.3986     0.1265     2.0128 C.ar         1    LIG   0.0000
  29 C29          5.1449    -0.1347     3.1586 C.ar         1    LIG   0.0000
  30 C30          4.6859     0.1861     4.4324 C.ar         1    LIG   0.0000
  31 C31          3.4407     0.7882     4.5719 C.ar         1    LIG   0.0000
  32 C32          2.6943     1.0547     3.4303 C.ar         1    LIG   0.0000
  33 C33          3.1527     0.7299     2.1552 C.ar         1    LIG   0.0000
  34 C34         -1.6546     1.7934     1.2422 C.ar         1    LIG   0.0000
  35 C35         -2.9821     2.1867     1.3724 C.ar         1    LIG   0.0000
  36 H           -7.3372     3.7965     1.0568 H            1    LIG   0.0000
  37 H           -7.4725     2.4882     2.0246 H            1    LIG   0.0000
  38 H           -6.9898     3.9183     2.6478 H            1    LIG   0.0000
  39 H           -5.4607     2.3616     0.7569 H            1    LIG   0.0000
  40 H           -4.9780     3.7918     1.3801 H            1    LIG   0.0000
  41 H           -3.5372     1.0391     4.4454 H            1    LIG   0.0000
  42 H           -1.2482     0.3658     4.2085 H            1    LIG   0.0000
  43 H            0.7698     0.2502     2.9057 H            1    LIG   0.0000
  44 H            3.3982     2.2475    -0.2696 H            1    LIG   0.0000
  45 H            2.4446     1.1626    -1.0313 H            1    LIG   0.0000
  46 H            6.5778    -1.1053     1.3118 H            1    LIG   0.0000
  47 H            6.4499    -0.9227    -0.3059 H            1    LIG   0.0000
  48 H            7.2285    -3.4701     0.1692 H            1    LIG   0.0000
  49 H            6.7778    -5.6245     1.7768 H            1    LIG   0.0000
  50 H            5.9286    -7.8574     1.6397 H            1    LIG   0.0000
  51 H            4.3873    -8.4448    -0.0913 H            1    LIG   0.0000
  52 H            3.1230    -7.9344    -1.9312 H            1    LIG   0.0000
  53 H            2.5279    -6.4142    -1.9716 H            1    LIG   0.0000
  54 H            3.7741    -6.8292    -2.9419 H            1    LIG   0.0000
  55 H            3.7529    -4.6107    -2.5441 H            1    LIG   0.0000
  56 H            3.9488    -3.4468    -1.4156 H            1    LIG   0.0000
  57 H            5.1952    -3.8615    -2.3858 H            1    LIG   0.0000
  58 H            6.0413    -0.5676     3.0630 H            1    LIG   0.0000
  59 H            5.2447    -0.0139     5.2372 H            1    LIG   0.0000
  60 H            3.0884     1.0253     5.4773 H            1    LIG   0.0000
  61 H            1.8007     1.4930     3.5270 H            1    LIG   0.0000
  62 H           -1.1550     1.9907     0.3988 H            1    LIG   0.0000
  63 H           -3.4431     2.6671     0.6263 H            1    LIG   0.0000
@<TRIPOS>BOND
   1        1        2 1
   2        2        3 1
   3        3        4 1
   4        4        5 ar
   5        5        6 ar
   6        6        7 ar
   7        7        8 1
   8        8        9 am
   9        9       10 2
  10        9       11 am
  11       11       12 1
  12       12       13 1
  13       13       14 2
  14       13       15 am
  15       15       16 1
  16       16       17 1
  17       17       18 2
  18       17       19 am
  19       19       20 1
  20       20       21 ar
  21       21       22 ar
  22       22       23 ar
  23       23       24 ar
  24       24       25 1
  25       24       26 ar
  26       26       20 ar
  27       26       27 1
  28       15       28 1
  29       28       29 ar
  30       29       30 ar
  31       30       31 ar
  32       31       32 ar
  33       32       33 ar
  34       33       28 ar
  35       33       11 1
  36        7       34 ar
  37       34       35 ar
  38       35        4 ar
  39        1       36 1
  40        1       37 1
  41        1       38 1
  42        2       39 1
  43        2       40 1
  44        5       41 1
  45        6       42 1
  46        8       43 1
  47       12       44 1
  48       12       45 1
  49       16       46 1
  50       16       47 1
  51       19       48 1
  52       21       49 1
  53       22       50 1
  54       23       51 1
  55       25       52 1
  56       25       53 1
  57       25       54 1
  58       27       55 1
  59       27       56 1
  60       27       57 1
  61       29       58 1
  62       30       59 1
  63       31       60 1
  64       32       61 1
  65       34       62 1
  66       35       63 1

@<TRIPOS>MOLECULE

  63   66
SMALL
USER_CHARGES
@<TRIPOS>ATOM
   1 C1          -6.9491     3.3214     1.8465 C.3          1    LIG   0.0000
   2 C2          -5.5015     2.9585     1.5582 C.3          1    LIG   0.0000
   3 O3          -4.9503     2.2838     2.6795 O.3          1    LIG   0.0000
   4 C4          -3.6612     1.9039     2.5532 C.ar         1    LIG   0.0000
   5 C5          -3.0374     1.2363     3.6021 C.ar         1    LIG   0.0000
   6 C6          -1.7092     0.8465     3.4626 C.ar         1    LIG   0.0000
   7 C7          -1.0222     1.1255     2.2854 C.ar         1    LIG   0.0000
   8 N8           0.3150     0.7299     2.1553 N.am         1    LIG   0.0000
   9 C9           1.0000     1.0000     1.0000 C.2          1    LIG   0.0000
  10 O10          0.4000     1.2366    -0.0119 O.2          1    LIG   0.0000
  11 N11          2.4053     1.0000     1.0000 N.am         1    LIG   0.0000
  12 C12          3.0792     1.2998    -0.2708 C.3          1    LIG   0.0000
  13 C13          4.2638     0.3581    -0.4124 C.2          1    LIG   0.0000
  14 O14          4.6588     0.1144    -1.5381 O.2          1    LIG   0.0000
  15 N15          4.8500    -0.2020     0.7261 N.am         1    LIG   0.0000
  16 C16          5.9544    -1.1538     0.5314 C.3          1    LIG   0.0000
  17 C17          5.3950    -2.5625     0.4166 C.2          1    LIG   0.0000
  18 O18          4.2113    -2.7457     0.4894 O.2          1    LIG   0.0000
  19 N19          6.2421    -3.6229     0.2299 N.am         1    LIG   0.0000
  20 C20          5.7267    -4.9204     0.1242 C.ar         1    LIG   0.0000
  21 C21          5.9661    -5.6350    -1.0451 C.ar         1    LIG   0.0000
  22 C22          5.4660    -6.9259    -1.1797 C.ar         1    LIG   0.0000
  23 C23          4.7297    -7.4974    -0.1473 C.ar         1    LIG   0.0000
  24 C24          4.4943    -6.7783     1.0197 C.ar         1    LIG   0.0000
  25 C25          3.6857    -7.4389     2.1248 C.3          1    LIG   0.0000
  26 C26          4.9914    -5.4857     1.1613 C.ar         1    LIG   0.0000
  27 C27          4.7382    -4.6927     2.4336 C.3          1    LIG   0.0000
  28 C28          4.3986     0.1265     2.0128 C.ar         1    LIG   0.0000
  29 C29          5.1449    -0.1347     3.1586 C.ar         1    LIG   0.0000
  30 C30          4.6859     0.1861     4.4324 C.ar         1    LIG   0.0000
  31 C31          3.4407     0.7882     4.5719 C.ar         1    LIG   0.0000
  32 C32          2.6943     1.0547     3.4303 C.ar         1    LIG   0.0000
  33 C33          3.1527     0.7299     2.1552 C.ar         1    LIG   0.0000
  34 C34         -1.6546     1.7934     1.2422 C.ar         1    LIG   0.0000
  35 C35         -2.9821     2.1867     1.3724 C.ar         1    LIG   0.0000
  36 H           -7.3372     3.7965     1.0568 H            1    LIG   0.0000
  37 H           -7.4725     2.4882     2.0246 H            1    LIG   0.0000
  38 H           -6.9898     3.9183     2.6478 H            1    LIG   0.0000
  39 H           -5.4607     2.3616     0.7569 H            1    LIG   0.0000
  40 H           -4.9780     3.7918     1.3801 H            1    LIG   0.0000
  41 H           -3.5372     1.0391     4.4454 H            1    LIG   0.0000
  42 H           -1.2482     0.3658     4.2085 H            1    LIG   0.0000
  43 H            0.7698     0.2502     2.9057 H            1    LIG   0.0000
  44 H            3.3982     2.2475    -0.2696 H            1    LIG   0.0000
  45 H            2.4446     1.1626    -1.0313 H            1    LIG   0.0000
  46 H            6.5778    -1.1053     1.3118 H            1    LIG   0.0000
  47 H            6.4499    -0.9227    -0.3059 H            1    LIG   0.0000
  48 H            7.2285    -3.4701     0.1692 H            1    LIG   0.0000
  49 H            6.4958    -5.2222    -1.7860 H            1    LIG   0.0000
  50 H            5.6357    -7.4429    -2.0186 H            1    LIG   0.0000
  51 H            4.3696    -8.4253    -0.2441 H            1    LIG   0.0000
  52 H            3.4192    -8.3592     1.8384 H            1    LIG   0.0000
  53 H            4.2401    -7.4957     2.9551 H            1    LIG   0.0000
  54 H            2.8659    -6.8963     2.3079 H            1    LIG   0.0000
  55 H            4.1980    -5.2449     3.0686 H            1    LIG   0.0000
  56 H            5.6120    -4.4556     2.8581 H            1    LIG   0.0000
  57 H            4.2379    -3.8559     2.2108 H            1    LIG   0.0000
  58 H            6.0413    -0.5676     3.0630 H            1    LIG   0.0000
  59 H            5.2447    -0.0139     5.2372 H            1    LIG   0.0000
  60 H            3.0884     1.0253     5.4773 H            1    LIG   0.0000
  61 H            1.8007     1.4930     3.5270 H            1    LIG   0.0000
  62 H           -1.1550     1.9907     0.3988 H            1    LIG   0.0000
  63 H           -3.4431     2.6671     0.6263 H            1    LIG   0.0000
@<TRIPOS>BOND
   1        1        2 1
   2        2        3 1
   3        3        4 1
   4        4        5 ar
   5        5        6 ar
   6        6        7 ar
   7        7        8 1
   8        8        9 am
   9        9       10 2
  10        9       11 am
  11       11       12 1
  12       12       13 1
  13       13       14 2
  14       13       15 am
  15       15       16 1
  16       16       17 1
  17       17       18 2
  18       17       19 am
  19       19       20 1
  20       20       21 ar
  21       21       22 ar
  22       22       23 ar
  23       23       24 ar
  24       24       25 1
  25       24       26 ar
  26       26       20 ar
  27       26       27 1
  28       15       28 1
  29       28       29 ar
  30       29       30 ar
  31       30       31 ar
  32       31       32 ar
  33       32       33 ar
  34       33       28 ar
  35       33       11 1
  36        7       34 ar
  37       34       35 ar
  38       35        4 ar
  39        1       36 1
  40        1       37 1
  41        1       38 1
  42        2       39 1
  43        2       40 1
  44        5       41 1
  45        6       42 1
  46        8       43 1
  47       12       44 1
  48       12       45 1
  49       16       46 1
  50       16       47 1
  51       19       48 1
  52       21       49 1
  53       22       50 1
  54       23       51 1
  55       25       52 1
  56       25       53 1
  57       25       54 1
  58       27       55 1
  59       27       56 1
  60       27       57 1
  61       29       58 1
  62       30       59 1
  63       31       60 1
  64       32       61 1
  65       34       62 1
  66       35       63 1

@<TRIPOS>MOLECULE

  63   66
SMALL
USER_CHARGES
@<TRIPOS>ATOM
   1 C1          -4.3861     4.4661     1.8517 C.3          1    LIG   0.0000
   2 C2          -5.3739     3.3121     1.7966 C.3          1    LIG   0.0000
   3 O3          -4.9503     2.2838     2.6795 O.3          1    LIG   0.0000
   4 C4          -3.6612     1.9039     2.5532 C.ar         1    LIG   0.0000
   5 C5          -3.0374     1.2363     3.6021 C.ar         1    LIG   0.0000
   6 C6          -1.7092     0.8465     3.4626 C.ar         1    LIG   0.0000
   7 C7          -1.0222     1.1255     2.2854 C.ar         1    LIG   0.0000
   8 N8           0.3150     0.7299     2.1553 N.am         1    LIG   0.0000
   9 C9           1.0000     1.0000     1.0000 C.2          1    LIG   0.0000
  10 O10          0.4000     1.2366    -0.0119 O.2          1    LIG   0.0000
  11 N11          2.4053     1.0000     1.0000 N.am         1    LIG   0.0000
  12 C12          3.0792     1.2998    -0.2708 C.3          1    LIG   0.0000
  13 C13          4.2638     0.3581    -0.4124 C.2          1    LIG   0.0000
  14 O14          4.6588     0.1144    -1.5381 O.2          1    LIG   0.0000
  15 N15          4.8500    -0.2020     0.7261 N.am         1    LIG   0.0000
  16 C16          5.9544    -1.1538     0.5314 C.3          1    LIG   0.0000
  17 C17          5.3950    -2.5625     0.4166 C.2          1    LIG   0.0000
  18 O18          4.2113    -2.7457     0.4894 O.2          1    LIG   0.0000
  19 N19          6.2421    -3.6229     0.2299 N.am         1    LIG   0.0000
  20 C20          5.7515    -4.8285    -0.2860 C.ar         1    LIG   0.0000
  21 C21          4.7539    -5.4937     0.4194 C.ar         1    LIG   0.0000
  22 C22          4.2475    -6.6941    -0.0677 C.ar         1    LIG   0.0000
  23 C23          4.7386    -7.2247    -1.2559 C.ar         1    LIG   0.0000
  24 C24          5.7354    -6.5546    -1.9572 C.ar         1    LIG   0.0000
  25 C25          6.2446    -7.1674    -3.2520 C.3          1    LIG   0.0000
  26 C26          6.2473    -5.3530    -1.4755 C.ar         1    LIG   0.0000
  27 C27          7.3374    -4.6144    -2.2357 C.3          1    LIG   0.0000
  28 C28          4.3986     0.1265     2.0128 C.ar         1    LIG   0.0000
  29 C29          5.1449    -0.1347     3.1586 C.ar         1    LIG   0.0000
  30 C30          4.6859     0.1861     4.4324 C.ar         1    LIG   0.0000
  31 C31          3.4407     0.7882     4.5719 C.ar         1    LIG   0.0000
  32 C32          2.6943     1.0547     3.4303 C.ar         1    LIG   0.0000
  33 C33          3.1527     0.7299     2.1552 C.ar         1    LIG   0.0000
  34 C34         -1.6546     1.7934     1.2422 C.ar         1    LIG   0.0000
  35 C35         -2.9821     2.1867     1.3724 C.ar         1    LIG   0.0000
  36 H           -4.6844     5.1902     1.2299 H            1    LIG   0.0000
  37 H           -4.3436     4.8242     2.7844 H            1    LIG   0.0000
  38 H           -3.4804     4.1430     1.5771 H            1    LIG   0.0000
  39 H           -6.2795     3.6351     2.0712 H            1    LIG   0.0000
  40 H           -5.4163     2.9540     0.8638 H            1    LIG   0.0000
  41 H           -3.5372     1.0391     4.4454 H            1    LIG   0.0000
  42 H           -1.2482     0.3658     4.2085 H            1    LIG   0.0000
  43 H            0.7698     0.2502     2.9057 H            1    LIG   0.0000
  44 H            3.3982     2.2475    -0.2696 H            1    LIG   0.0000
  45 H            2.4446     1.1626    -1.0313 H            1    LIG   0.0000
  46 H            6.5778    -1.1053     1.3118 H            1    LIG   0.0000
  47 H            6.4499    -0.9227    -0.3059 H            1    LIG   0.0000
  48 H            7.2108    -3.5358     0.4622 H            1    LIG   0.0000
  49 H            4.4023    -5.1103     1.2734 H            1    LIG   0.0000
  50 H            3.5305    -7.1755     0.4363 H            1    LIG   0.0000
  51 H            4.3749    -8.0880    -1.6060 H            1    LIG   0.0000
  52 H            5.7586    -8.0231    -3.4296 H            1    LIG   0.0000
  53 H            6.0860    -6.5310    -4.0069 H            1    LIG   0.0000
  54 H            7.2243    -7.3510    -3.1712 H            1    LIG   0.0000
  55 H            7.5742    -5.1271    -3.0609 H            1    LIG   0.0000
  56 H            7.0083    -3.7053    -2.4911 H            1    LIG   0.0000
  57 H            8.1467    -4.5250    -1.6551 H            1    LIG   0.0000
  58 H            6.0413    -0.5676     3.0630 H            1    LIG   0.0000
  59 H            5.2447    -0.0139     5.2372 H            1    LIG   0.0000
  60 H            3.0884     1.0253     5.4773 H            1    LIG   0.0000
  61 H            1.8007     1.4930     3.5270 H            1    LIG   0.0000
  62 H           -1.1550     1.9907     0.3988 H            1    LIG   0.0000
  63 H           -3.4431     2.6671     0.6263 H            1    LIG   0.0000
@<TRIPOS>BOND
   1        1        2 1
   2        2        3 1
   3        3        4 1
   4        4        5 ar
   5        5        6 ar
   6        6        7 ar
   7        7        8 1
   8        8        9 am
   9        9       10 2
  10        9       11 am
  11       11       12 1
  12       12       13 1
  13       13       14 2
  14       13       15 am
  15       15       16 1
  16       16       17 1
  17       17       18 2
  18       17       19 am
  19       19       20 1
  20       20       21 ar
  21       21       22 ar
  22       22       23 ar
  23       23       24 ar
  24       24       25 1
  25       24       26 ar
  26       26       20 ar
  27       26       27 1
  28       15       28 1
  29       28       29 ar
  30       29       30 ar
  31       30       31 ar
  32       31       32 ar
  33       32       33 ar
  34       33       28 ar
  35       33       11 1
  36        7       34 ar
  37       34       35 ar
  38       35        4 ar
  39        1       36 1
  40        1       37 1
  41        1       38 1
  42        2       39 1
  43        2       40 1
  44        5       41 1
  45        6       42 1
  46        8       43 1
  47       12       44 1
  48       12       45 1
  49       16       46 1
  50       16       47 1
  51       19       48 1
  52       21       49 1
  53       22       50 1
  54       23       51 1
  55       25       52 1
  56       25       53 1
  57       25       54 1
  58       27       55 1
  59       27       56 1
  60       27       57 1
  61       29       58 1
  62       30       59 1
  63       31       60 1
  64       32       61 1
  65       34       62 1
  66       35       63 1

@<TRIPOS>MOLECULE

  63   66
SMALL
USER_CHARGES
@<TRIPOS>ATOM
   1 C1          -5.6095     0.5443     1.1414 C.3          1    LIG   0.0000
   2 C2          -5.9157     1.2549     2.4497 C.3          1    LIG   0.0000
   3 O3          -4.9536     2.2757     2.6703 O.3          1    LIG   0.0000
   4 C4          -3.6643     1.8959     2.5456 C.ar         1    LIG   0.0000
   5 C5          -3.3348     0.5477     2.6388 C.ar         1    LIG   0.0000
   6 C6          -2.0038     0.1648     2.5071 C.ar         1    LIG   0.0000
   7 C7          -1.0222     1.1255     2.2854 C.ar         1    LIG   0.0000
   8 N8           0.3150     0.7299     2.1553 N.am         1    LIG   0.0000
   9 C9           1.0000     1.0000     1.0000 C.2          1    LIG   0.0000
  10 O10          0.4000     1.2366    -0.0119 O.2          1    LIG   0.0000
  11 N11          2.4053     1.0000     1.0000 N.am         1    LIG   0.0000
  12 C12          3.0792     1.2998    -0.2708 C.3          1    LIG   0.0000
  13 C13          4.2638     0.3581    -0.4124 C.2          1    LIG   0.0000
  14 O14          4.6588     0.1144    -1.5381 O.2          1    LIG   0.0000
  15 N15          4.8500    -0.2020     0.7261 N.am         1    LIG   0.0000
  16 C16          5.9544    -1.1538     0.5314 C.3          1    LIG   0.0000
  17 C17          5.3950    -2.5625     0.4166 C.2          1    LIG   0.0000
  18 O18          4.2113    -2.7457     0.4894 O.2          1    LIG   0.0000
  19 N19          6.2421    -3.6229     0.2299 N.am         1    LIG   0.0000
  20 C20          5.8063    -4.7514    -0.4750 C.ar         1    LIG   0.0000
  21 C21          5.3954    -4.5905    -1.7942 C.ar         1    LIG   0.0000
  22 C22          4.9562    -5.6929    -2.5197 C.ar         1    LIG   0.0000
  23 C23          4.9293    -6.9503    -1.9256 C.ar         1    LIG   0.0000
  24 C24          5.3422    -7.1051    -0.6065 C.ar         1    LIG   0.0000
  25 C25          5.2983    -8.4959     0.0059 C.3          1    LIG   0.0000
  26 C26          5.7825    -6.0061     0.1258 C.ar         1    LIG   0.0000
  27 C27          6.2351    -6.1666     1.5684 C.3          1    LIG   0.0000
  28 C28          4.3986     0.1265     2.0128 C.ar         1    LIG   0.0000
  29 C29          5.1449    -0.1347     3.1586 C.ar         1    LIG   0.0000
  30 C30          4.6859     0.1861     4.4324 C.ar         1    LIG   0.0000
  31 C31          3.4407     0.7882     4.5719 C.ar         1    LIG   0.0000
  32 C32          2.6943     1.0547     3.4303 C.ar         1    LIG   0.0000
  33 C33          3.1527     0.7299     2.1552 C.ar         1    LIG   0.0000
  34 C34         -1.3616     2.4711     2.1936 C.ar         1    LIG   0.0000
  35 C35         -2.6895     2.8632     2.3238 C.ar         1    LIG   0.0000
  36 H           -6.2870    -0.1746     0.9861 H            1    LIG   0.0000
  37 H           -5.6429     1.2021     0.3890 H            1    LIG   0.0000
  38 H           -4.6970     0.1378     1.1885 H            1    LIG   0.0000
  39 H           -6.8281     1.6614     2.4026 H            1    LIG   0.0000
  40 H           -5.8822     0.5971     3.2021 H            1    LIG   0.0000
  41 H           -4.0455    -0.1375     2.7984 H            1    LIG   0.0000
  42 H           -1.7526    -0.8010     2.5719 H            1    LIG   0.0000
  43 H            0.7698     0.2502     2.9057 H            1    LIG   0.0000
  44 H            3.3982     2.2475    -0.2696 H            1    LIG   0.0000
  45 H            2.4446     1.1626    -1.0313 H            1    LIG   0.0000
  46 H            6.5778    -1.1053     1.3118 H            1    LIG   0.0000
  47 H            6.4499    -0.9227    -0.3059 H            1    LIG   0.0000
  48 H            7.1716    -3.5909     0.5972 H            1    LIG   0.0000
  49 H            5.4156    -3.6856    -2.2194 H            1    LIG   0.0000
  50 H            4.6598    -5.5816    -3.4682 H            1    LIG   0.0000
  51 H            4.6131    -7.7430    -2.4469 H            1    LIG   0.0000
  52 H            4.9562    -9.1476    -0.6711 H            1    LIG   0.0000
  53 H            6.2186    -8.7638     0.2911 H            1    LIG   0.0000
  54 H            4.6912    -8.4912     0.8005 H            1    LIG   0.0000
  55 H            6.1538    -7.1260     1.8385 H            1    LIG   0.0000
  56 H            7.1883    -5.8762     1.6531 H            1    LIG   0.0000
  57 H            5.6610    -5.6033     2.1626 H            1    LIG   0.0000
  58 H            6.0413    -0.5676     3.0630 H            1    LIG   0.0000
  59 H            5.2447    -0.0139     5.2372 H            1    LIG   0.0000
  60 H            3.0884     1.0253     5.4773 H            1    LIG   0.0000
  61 H            1.8007     1.4930     3.5270 H            1    LIG   0.0000
  62 H           -0.6510     3.1564     2.0341 H            1    LIG   0.0000
  63 H           -2.9405     3.8290     2.2587 H            1    LIG   0.0000
@<TRIPOS>BOND
   1        1        2 1
   2        2        3 1
   3        3        4 1
   4        4        5 ar
   5        5        6 ar
   6        6        7 ar
   7        7        8 1
   8        8        9 am
   9        9       10 2
  10        9       11 am
  11       11       12 1
  12       12       13 1
  13       13       14 2
  14       13       15 am
  15       15       16 1
  16       16       17 1
  17       17       18 2
  18       17       19 am
  19       19       20 1
  20       20       21 ar
  21       21       22 ar
  22       22       23 ar
  23       23       24 ar
  24       24       25 1
  25       24       26 ar
  26       26       20 ar
  27       26       27 1
  28       15       28 1
  29       28       29 ar
  30       29       30 ar
  31       30       31 ar
  32       31       32 ar
  33       32       33 ar
  34       33       28 ar
  35       33       11 1
  36        7       34 ar
  37       34       35 ar
  38       35        4 ar
  39        1       36 1
  40        1       37 1
  41        1       38 1
  42        2       39 1
  43        2       40 1
  44        5       41 1
  45        6       42 1
  46        8       43 1
  47       12       44 1
  48       12       45 1
  49       16       46 1
  50       16       47 1
  51       19       48 1
  52       21       49 1
  53       22       50 1
  54       23       51 1
  55       25       52 1
  56       25       53 1
  57       25       54 1
  58       27       55 1
  59       27       56 1
  60       27       57 1
  61       29       58 1
  62       30       59 1
  63       31       60 1
  64       32       61 1
  65       34       62 1
  66       35       63 1

@<TRIPOS>MOLECULE

  63   66
SMALL
USER_CHARGES
@<TRIPOS>ATOM
   1 C1          -3.6049     4.9111     3.9726 C.3          1    LIG   0.0000
   2 C2          -4.6829     4.3913     3.0355 C.3          1    LIG   0.0000
   3 O3          -4.6493     2.9718     3.0166 O.3          1    LIG   0.0000
   4 C4          -3.4344     2.4220     2.8075 C.ar         1    LIG   0.0000
   5 C5          -3.2074     1.1003     3.1768 C.ar         1    LIG   0.0000
   6 C6          -1.9529     0.5409     2.9559 C.ar         1    LIG   0.0000
   7 C7          -0.9448     1.3019     2.3725 C.ar         1    LIG   0.0000
   8 N8           0.3150     0.7299     2.1553 N.am         1    LIG   0.0000
   9 C9           1.0000     1.0000     1.0000 C.2          1    LIG   0.0000
  10 O10          0.4000     1.2366    -0.0119 O.2          1    LIG   0.0000
  11 N11          2.4053     1.0000     1.0000 N.am         1    LIG   0.0000
  12 C12          3.0792     1.2998    -0.2708 C.3          1    LIG   0.0000
  13 C13          4.2638     0.3581    -0.4124 C.2          1    LIG   0.0000
  14 O14          4.6588     0.1144    -1.5381 O.2          1    LIG   0.0000
  15 N15          4.8500    -0.2020     0.7261 N.am         1    LIG   0.0000
  16 C16          5.9544    -1.1538     0.5314 C.3          1    LIG   0.0000
  17 C17          5.3950    -2.5625     0.4166 C.2          1    LIG   0.0000
  18 O18          4.2113    -2.7457     0.4894 O.2          1    LIG   0.0000
  19 N19          6.2421    -3.6229     0.2299 N.am         1    LIG   0.0000
  20 C20          5.8063    -4.7514    -0.4750 C.ar         1    LIG   0.0000
  21 C21          5.3954    -4.5905    -1.7942 C.ar         1    LIG   0.0000
  22 C22          4.9562    -5.6929    -2.5197 C.ar         1    LIG   0.0000
  23 C23          4.9293    -6.9503    -1.9256 C.ar         1    LIG   0.0000
  24 C24          5.3422    -7.1051    -0.6065 C.ar         1    LIG   0.0000
  25 C25          5.2983    -8.4959     0.0059 C.3          1    LIG   0.0000
  26 C26          5.7825    -6.0061     0.1258 C.ar         1    LIG   0.0000
  27 C27          6.2351    -6.1666     1.5684 C.3          1    LIG   0.0000
  28 C28          4.3986     0.1265     2.0128 C.ar         1    LIG   0.0000
  29 C29          5.1449    -0.1347     3.1586 C.ar         1    LIG   0.0000
  30 C30          4.6859     0.1861     4.4324 C.ar         1    LIG   0.0000
  31 C31          3.4407     0.7882     4.5719 C.ar         1    LIG   0.0000
  32 C32          2.6943     1.0547     3.4303 C.ar         1    LIG   0.0000
  33 C33          3.1527     0.7299     2.1552 C.ar         1    LIG   0.0000
  34 C34         -1.1816     2.6226     2.0066 C.ar         1    LIG   0.0000
  35 C35         -2.4325     3.1902     2.2234 C.ar         1    LIG   0.0000
  36 H           -3.6286     5.9108     3.9859 H            1    LIG   0.0000
  37 H           -3.7683     4.5615     4.8952 H            1    LIG   0.0000
  38 H           -2.7087     4.6031     3.6533 H            1    LIG   0.0000
  39 H           -5.5791     4.6993     3.3549 H            1    LIG   0.0000
  40 H           -4.5195     4.7409     2.1130 H            1    LIG   0.0000
  41 H           -3.9366     0.5591     3.5958 H            1    LIG   0.0000
  42 H           -1.7757    -0.4082     3.2164 H            1    LIG   0.0000
  43 H            0.7145     0.1243     2.8435 H            1    LIG   0.0000
  44 H            3.3982     2.2475    -0.2696 H            1    LIG   0.0000
  45 H            2.4446     1.1626    -1.0313 H            1    LIG   0.0000
  46 H            6.5778    -1.1053     1.3118 H            1    LIG   0.0000
  47 H            6.4499    -0.9227    -0.3059 H            1    LIG   0.0000
  48 H            7.1716    -3.5909     0.5972 H            1    LIG   0.0000
  49 H            5.4156    -3.6856    -2.2194 H            1    LIG   0.0000
  50 H            4.6598    -5.5816    -3.4682 H            1    LIG   0.0000
  51 H            4.6131    -7.7430    -2.4469 H            1    LIG   0.0000
  52 H            4.9562    -9.1476    -0.6711 H            1    LIG   0.0000
  53 H            6.2186    -8.7638     0.2911 H            1    LIG   0.0000
  54 H            4.6912    -8.4912     0.8005 H            1    LIG   0.0000
  55 H            6.1538    -7.1260     1.8385 H            1    LIG   0.0000
  56 H            7.1883    -5.8762     1.6531 H            1    LIG   0.0000
  57 H            5.6610    -5.6033     2.1626 H            1    LIG   0.0000
  58 H            6.0413    -0.5676     3.0630 H            1    LIG   0.0000
  59 H            5.2447    -0.0139     5.2372 H            1    LIG   0.0000
  60 H            3.0884     1.0253     5.4773 H            1    LIG   0.0000
  61 H            1.8007     1.4930     3.5270 H            1    LIG   0.0000
  62 H           -0.4525     3.1639     1.5877 H            1    LIG   0.0000
  63 H           -2.6096     4.1392     1.9625 H            1    LIG   0.0000
@<TRIPOS>BOND
   1        1        2 1
   2        2        3 1
   3        3        4 1
   4        4        5 ar
   5        5        6 ar
   6        6        7 ar
   7        7        8 1
   8        8        9 am
   9        9       10 2
  10        9       11 am
  11       11       12 1
  12       12       13 1
  13       13       14 2
  14       13       15 am
  15       15       16 1
  16       16       17 1
  17       17       18 2
  18       17       19 am
  19       19       20 1
  20       20       21 ar
  21       21       22 ar
  22       22       23 ar
  23       23       24 ar
  24       24       25 1
  25       24       26 ar
  26       26       20 ar
  27       26       27 1
  28       15       28 1
  29       28       29 ar
  30       29       30 ar
  31       30       31 ar
  32       31       32 ar
  33       32       33 ar
  34       33       28 ar
  35       33       11 1
  36        7       34 ar
  37       34       35 ar
  38       35        4 ar
  39        1       36 1
  40        1       37 1
  41        1       38 1
  42        2       39 1
  43        2       40 1
  44        5       41 1
  45        6       42 1
  46        8       43 1
  47       12       44 1
  48       12       45 1
  49       16       46 1
  50       16       47 1
  51       19       48 1
  52       21       49 1
  53       22       50 1
  54       23       51 1
  55       25       52 1
  56       25       53 1
  57       25       54 1
  58       27       55 1
  59       27       56 1
  60       27       57 1
  61       29       58 1
  62       30       59 1
  63       31       60 1
  64       32       61 1
  65       34       62 1
  66       35       63 1

@<TRIPOS>MOLECULE

  63   66
SMALL
USER_CHARGES
@<TRIPOS>ATOM
   1 C1          -4.8469     1.8425     5.0325 C.3          1    LIG   0.0000
   2 C2          -5.3111     2.8047     3.9513 C.3          1    LIG   0.0000
   3 O3          -4.9470     2.2958     2.6766 O.3          1    LIG   0.0000
   4 C4          -3.6585     1.9143     2.5496 C.ar         1    LIG   0.0000
   5 C5          -2.7084     2.4010     3.4416 C.ar         1    LIG   0.0000
   6 C6          -1.3829     2.0011     3.3046 C.ar         1    LIG   0.0000
   7 C7          -1.0222     1.1255     2.2854 C.ar         1    LIG   0.0000
   8 N8           0.3150     0.7299     2.1553 N.am         1    LIG   0.0000
   9 C9           1.0000     1.0000     1.0000 C.2          1    LIG   0.0000
  10 O10          0.4000     1.2366    -0.0119 O.2          1    LIG   0.0000
  11 N11          2.4053     1.0000     1.0000 N.am         1    LIG   0.0000
  12 C12          3.0792     1.2998    -0.2708 C.3          1    LIG   0.0000
  13 C13          4.2638     0.3581    -0.4124 C.2          1    LIG   0.0000
  14 O14          4.6588     0.1144    -1.5381 O.2          1    LIG   0.0000
  15 N15          4.8500    -0.2020     0.7261 N.am         1    LIG   0.0000
  16 C16          5.9544    -1.1538     0.5314 C.3          1    LIG   0.0000
  17 C17          5.3950    -2.5625     0.4166 C.2          1    LIG   0.0000
  18 O18          4.2113    -2.7457     0.4894 O.2          1    LIG   0.0000
  19 N19          6.2421    -3.6229     0.2299 N.am         1    LIG   0.0000
  20 C20          5.8063    -4.7514    -0.4750 C.ar         1    LIG   0.0000
  21 C21          5.8050    -5.9801     0.1772 C.ar         1    LIG   0.0000
  22 C22          5.3786    -7.1192    -0.4976 C.ar         1    LIG   0.0000
  23 C23          4.9556    -7.0268    -1.8194 C.ar         1    LIG   0.0000
  24 C24          4.9584    -5.7954    -2.4660 C.ar         1    LIG   0.0000
  25 C25          4.4880    -5.7366    -3.9105 C.3          1    LIG   0.0000
  26 C26          5.3843    -4.6512    -1.7970 C.ar         1    LIG   0.0000
  27 C27          5.3910    -3.3013    -2.4967 C.3          1    LIG   0.0000
  28 C28          4.3986     0.1265     2.0128 C.ar         1    LIG   0.0000
  29 C29          5.1449    -0.1347     3.1586 C.ar         1    LIG   0.0000
  30 C30          4.6859     0.1861     4.4324 C.ar         1    LIG   0.0000
  31 C31          3.4407     0.7882     4.5719 C.ar         1    LIG   0.0000
  32 C32          2.6943     1.0547     3.4303 C.ar         1    LIG   0.0000
  33 C33          3.1527     0.7299     2.1552 C.ar         1    LIG   0.0000
  34 C34         -1.9794     0.6443     1.3986 C.ar         1    LIG   0.0000
  35 C35         -3.3068     1.0383     1.5278 C.ar         1    LIG   0.0000
  36 H           -5.1033     2.2009     5.9302 H            1    LIG   0.0000
  37 H           -5.2789     0.9514     4.8936 H            1    LIG   0.0000
  38 H           -3.8531     1.7421     4.9851 H            1    LIG   0.0000
  39 H           -6.3049     2.9051     3.9987 H            1    LIG   0.0000
  40 H           -4.8791     3.6958     4.0902 H            1    LIG   0.0000
  41 H           -2.9748     3.0301     4.1718 H            1    LIG   0.0000
  42 H           -0.6895     2.3431     3.9387 H            1    LIG   0.0000
  43 H            0.7698     0.2502     2.9057 H            1    LIG   0.0000
  44 H            3.3982     2.2475    -0.2696 H            1    LIG   0.0000
  45 H            2.4446     1.1626    -1.0313 H            1    LIG   0.0000
  46 H            6.5778    -1.1053     1.3118 H            1    LIG   0.0000
  47 H            6.4499    -0.9227    -0.3059 H            1    LIG   0.0000
  48 H            7.1716    -3.5909     0.5972 H            1    LIG   0.0000
  49 H            6.1094    -6.0442     1.1276 H            1    LIG   0.0000
  50 H            5.3761    -8.0044    -0.0324 H            1    LIG   0.0000
  51 H            4.6495    -7.8458    -2.3048 H            1    LIG   0.0000
  52 H            4.2247    -6.6527    -4.2128 H            1    LIG   0.0000
  53 H            3.7010    -5.1236    -3.9800 H            1    LIG   0.0000
  54 H            5.2289    -5.3948    -4.4887 H            1    LIG   0.0000
  55 H            5.0598    -3.4100    -3.4340 H            1    LIG   0.0000
  56 H            4.7947    -2.6675    -2.0040 H            1    LIG   0.0000
  57 H            6.3227    -2.9385    -2.5123 H            1    LIG   0.0000
  58 H            6.0413    -0.5676     3.0630 H            1    LIG   0.0000
  59 H            5.2447    -0.0139     5.2372 H            1    LIG   0.0000
  60 H            3.0884     1.0253     5.4773 H            1    LIG   0.0000
  61 H            1.8007     1.4930     3.5270 H            1    LIG   0.0000
  62 H           -1.7132     0.0152     0.6682 H            1    LIG   0.0000
  63 H           -4.0002     0.6960     0.8937 H            1    LIG   0.0000
@<TRIPOS>BOND
   1        1        2 1
   2        2        3 1
   3        3        4 1
   4        4        5 ar
   5        5        6 ar
   6        6        7 ar
   7        7        8 1
   8        8        9 am
   9        9       10 2
  10        9       11 am
  11       11       12 1
  12       12       13 1
  13       13       14 2
  14       13       15 am
  15       15       16 1
  16       16       17 1
  17       17       18 2
  18       17       19 am
  19       19       20 1
  20       20       21 ar
  21       21       22 ar
  22       22       23 ar
  23       23       24 ar
  24       24       25 1
  25       24       26 ar
  26       26       20 ar
  27       26       27 1
  28       15       28 1
  29       28       29 ar
  30       29       30 ar
  31       30       31 ar
  32       31       32 ar
  33       32       33 ar
  34       33       28 ar
  35       33       11 1
  36        7       34 ar
  37       34       35 ar
  38       35        4 ar
  39        1       36 1
  40        1       37 1
  41        1       38 1
  42        2       39 1
  43        2       40 1
  44        5       41 1
  45        6       42 1
  46        8       43 1
  47       12       44 1
  48       12       45 1
  49       16       46 1
  50       16       47 1
  51       19       48 1
  52       21       49 1
  53       22       50 1
  54       23       51 1
  55       25       52 1
  56       25       53 1
  57       25       54 1
  58       27       55 1
  59       27       56 1
  60       27       57 1
  61       29       58 1
  62       30       59 1
  63       31       60 1
  64       32       61 1
  65       34       62 1
  66       35       63 1

@<TRIPOS>MOLECULE

  63   66
SMALL
USER_CHARGES
@<TRIPOS>ATOM
   1 C1          -6.7704     0.7502     2.2996 C.3          1    LIG   0.0000
   2 C2          -5.8065     1.3414     3.3153 C.3          1    LIG   0.0000
   3 O3          -4.9536     2.2757     2.6703 O.3          1    LIG   0.0000
   4 C4          -3.6643     1.8959     2.5456 C.ar         1    LIG   0.0000
   5 C5          -3.3348     0.5477     2.6388 C.ar         1    LIG   0.0000
   6 C6          -2.0038     0.1648     2.5071 C.ar         1    LIG   0.0000
   7 C7          -1.0222     1.1255     2.2854 C.ar         1    LIG   0.0000
   8 N8           0.3150     0.7299     2.1553 N.am         1    LIG   0.0000
   9 C9           1.0000     1.0000     1.0000 C.2          1    LIG   0.0000
  10 O10          0.4000     1.2366    -0.0119 O.2          1    LIG   0.0000
  11 N11          2.4053     1.0000     1.0000 N.am         1    LIG   0.0000
  12 C12          3.0792     1.2998    -0.2708 C.3          1    LIG   0.0000
  13 C13          4.2638     0.3581    -0.4124 C.2          1    LIG   0.0000
  14 O14          4.6588     0.1144    -1.5381 O.2          1    LIG   0.0000
  15 N15          4.8500    -0.2020     0.7261 N.am         1    LIG   0.0000
  16 C16          5.9544    -1.1538     0.5314 C.3          1    LIG   0.0000
  17 C17          5.3950    -2.5625     0.4166 C.2          1    LIG   0.0000
  18 O18          4.2113    -2.7457     0.4894 O.2          1    LIG   0.0000
  19 N19          6.2421    -3.6229     0.2299 N.am         1    LIG   0.0000
  20 C20          5.8063    -4.7514    -0.4750 C.ar         1    LIG   0.0000
  21 C21          5.2054    -5.7852     0.2358 C.ar         1    LIG   0.0000
  22 C22          4.7633    -6.9195    -0.4369 C.ar         1    LIG   0.0000
  23 C23          4.9228    -7.0168    -1.8153 C.ar         1    LIG   0.0000
  24 C24          5.5237    -5.9795    -2.5206 C.ar         1    LIG   0.0000
  25 C25          5.6788    -6.1242    -4.0261 C.3          1    LIG   0.0000
  26 C26          5.9689    -4.8414    -1.8539 C.ar         1    LIG   0.0000
  27 C27          6.6273    -3.7033    -2.6174 C.3          1    LIG   0.0000
  28 C28          4.3986     0.1265     2.0128 C.ar         1    LIG   0.0000
  29 C29          5.1449    -0.1347     3.1586 C.ar         1    LIG   0.0000
  30 C30          4.6859     0.1861     4.4324 C.ar         1    LIG   0.0000
  31 C31          3.4407     0.7882     4.5719 C.ar         1    LIG   0.0000
  32 C32          2.6943     1.0547     3.4303 C.ar         1    LIG   0.0000
  33 C33          3.1527     0.7299     2.1552 C.ar         1    LIG   0.0000
  34 C34         -1.3616     2.4711     2.1936 C.ar         1    LIG   0.0000
  35 C35         -2.6895     2.8632     2.3238 C.ar         1    LIG   0.0000
  36 H           -7.3711     0.0922     2.7538 H            1    LIG   0.0000
  37 H           -7.3210     1.4817     1.8974 H            1    LIG   0.0000
  38 H           -6.2534     0.2877     1.5793 H            1    LIG   0.0000
  39 H           -6.3235     1.8039     4.0355 H            1    LIG   0.0000
  40 H           -5.2559     0.6098     3.7175 H            1    LIG   0.0000
  41 H           -4.0455    -0.1375     2.7984 H            1    LIG   0.0000
  42 H           -1.7526    -0.8010     2.5719 H            1    LIG   0.0000
  43 H            0.7698     0.2502     2.9057 H            1    LIG   0.0000
  44 H            3.3982     2.2475    -0.2696 H            1    LIG   0.0000
  45 H            2.4446     1.1626    -1.0313 H            1    LIG   0.0000
  46 H            6.5778    -1.1053     1.3118 H            1    LIG   0.0000
  47 H            6.4499    -0.9227    -0.3059 H            1    LIG   0.0000
  48 H            7.1716    -3.5909     0.5972 H            1    LIG   0.0000
  49 H            5.0916    -5.7131     1.2267 H            1    LIG   0.0000
  50 H            4.3309    -7.6650     0.0703 H            1    LIG   0.0000
  51 H            4.6055    -7.8324    -2.2990 H            1    LIG   0.0000
  52 H            5.3014    -7.0033    -4.3171 H            1    LIG   0.0000
  53 H            5.1885    -5.3829    -4.4844 H            1    LIG   0.0000
  54 H            6.6484    -6.0815    -4.2669 H            1    LIG   0.0000
  55 H            6.6633    -3.9315    -3.5904 H            1    LIG   0.0000
  56 H            6.0958    -2.8657    -2.4910 H            1    LIG   0.0000
  57 H            7.5558    -3.5641    -2.2731 H            1    LIG   0.0000
  58 H            6.0413    -0.5676     3.0630 H            1    LIG   0.0000
  59 H            5.2447    -0.0139     5.2372 H            1    LIG   0.0000
  60 H            3.0884     1.0253     5.4773 H            1    LIG   0.0000
  61 H            1.8007     1.4930     3.5270 H            1    LIG   0.0000
  62 H           -0.6510     3.1564     2.0341 H            1    LIG   0.0000
  63 H           -2.9405     3.8290     2.2587 H            1    LIG   0.0000
@<TRIPOS>BOND
   1        1        2 1
   2        2        3 1
   3        3        4 1
   4        4        5 ar
   5        5        6 ar
   6        6        7 ar
   7        7        8 1
   8        8        9 am
   9        9       10 2
  10        9       11 am
  11       11       12 1
  12       12       13 1
  13       13       14 2
  14       13       15 am
  15       15       16 1
  16       16       17 1
  17       17       18 2
  18       17       19 am
  19       19       20 1
  20       20       21 ar
  21       21       22 ar
  22       22       23 ar
  23       23       24 ar
  24       24       25 1
  25       24       26 ar
  26       26       20 ar
  27       26       27 1
  28       15       28 1
  29       28       29 ar
  30       29       30 ar
  31       30       31 ar
  32       31       32 ar
  33       32       33 ar
  34       33       28 ar
  35       33       11 1
  36        7       34 ar
  37       34       35 ar
  38       35        4 ar
  39        1       36 1
  40        1       37 1
  41        1       38 1
  42        2       39 1
  43        2       40 1
  44        5       41 1
  45        6       42 1
  46        8       43 1
  47       12       44 1
  48       12       45 1
  49       16       46 1
  50       16       47 1
  51       19       48 1
  52       21       49 1
  53       22       50 1
  54       23       51 1
  55       25       52 1
  56       25       53 1
  57       25       54 1
  58       27       55 1
  59       27       56 1
  60       27       57 1
  61       29       58 1
  62       30       59 1
  63       31       60 1
  64       32       61 1
  65       34       62 1
  66       35       63 1

@<TRIPOS>MOLECULE

  63   66
SMALL
USER_CHARGES
@<TRIPOS>ATOM
   1 C1          -4.9241     1.6069     4.9799 C.3          1    LIG   0.0000
   2 C2          -5.6973     1.5932     3.6713 C.3          1    LIG   0.0000
   3 O3          -4.9527     2.2773     2.6744 O.3          1    LIG   0.0000
   4 C4          -3.6634     1.8976     2.5491 C.ar         1    LIG   0.0000
   5 C5          -3.2625     0.6599     3.0412 C.ar         1    LIG   0.0000
   6 C6          -1.9322     0.2757     2.9061 C.ar         1    LIG   0.0000
   7 C7          -1.0222     1.1255     2.2854 C.ar         1    LIG   0.0000
   8 N8           0.3150     0.7299     2.1553 N.am         1    LIG   0.0000
   9 C9           1.0000     1.0000     1.0000 C.2          1    LIG   0.0000
  10 O10          0.4000     1.2366    -0.0119 O.2          1    LIG   0.0000
  11 N11          2.4053     1.0000     1.0000 N.am         1    LIG   0.0000
  12 C12          3.0792     1.2998    -0.2708 C.3          1    LIG   0.0000
  13 C13          4.2638     0.3581    -0.4124 C.2          1    LIG   0.0000
  14 O14          4.6588     0.1144    -1.5381 O.2          1    LIG   0.0000
  15 N15          4.8500    -0.2020     0.7261 N.am         1    LIG   0.0000
  16 C16          5.9544    -1.1538     0.5314 C.3          1    LIG   0.0000
  17 C17          5.3950    -2.5625     0.4166 C.2          1    LIG   0.0000
  18 O18          4.2113    -2.7457     0.4894 O.2          1    LIG   0.0000
  19 N19          6.2421    -3.6229     0.2299 N.am         1    LIG   0.0000
  20 C20          5.9012    -4.8870     0.7262 C.ar         1    LIG   0.0000
  21 C21          4.6950    -5.0292     1.4043 C.ar         1    LIG   0.0000
  22 C22          4.3297    -6.2725     1.9097 C.ar         1    LIG   0.0000
  23 C23          5.1695    -7.3676     1.7360 C.ar         1    LIG   0.0000
  24 C24          6.3740    -7.2194     1.0565 C.ar         1    LIG   0.0000
  25 C25          7.2632    -8.4408     0.8872 C.3          1    LIG   0.0000
  26 C26          6.7462    -5.9779     0.5483 C.ar         1    LIG   0.0000
  27 C27          8.0614    -5.8072    -0.1953 C.3          1    LIG   0.0000
  28 C28          4.3986     0.1265     2.0128 C.ar         1    LIG   0.0000
  29 C29          5.1449    -0.1347     3.1586 C.ar         1    LIG   0.0000
  30 C30          4.6859     0.1861     4.4324 C.ar         1    LIG   0.0000
  31 C31          3.4407     0.7882     4.5719 C.ar         1    LIG   0.0000
  32 C32          2.6943     1.0547     3.4303 C.ar         1    LIG   0.0000
  33 C33          3.1527     0.7299     2.1552 C.ar         1    LIG   0.0000
  34 C34         -1.4328     2.3610     1.7964 C.ar         1    LIG   0.0000
  35 C35         -2.7605     2.7536     1.9268 C.ar         1    LIG   0.0000
  36 H           -5.4485     1.1251     5.6820 H            1    LIG   0.0000
  37 H           -4.0429     1.1519     4.8511 H            1    LIG   0.0000
  38 H           -4.7721     2.5525     5.2674 H            1    LIG   0.0000
  39 H           -5.8493     0.6476     3.3838 H            1    LIG   0.0000
  40 H           -6.5785     2.0482     3.8001 H            1    LIG   0.0000
  41 H           -3.9219     0.0541     3.4864 H            1    LIG   0.0000
  42 H           -1.6300    -0.6114     3.2552 H            1    LIG   0.0000
  43 H            0.7698     0.2502     2.9057 H            1    LIG   0.0000
  44 H            3.3982     2.2475    -0.2696 H            1    LIG   0.0000
  45 H            2.4446     1.1626    -1.0313 H            1    LIG   0.0000
  46 H            6.5778    -1.1053     1.3118 H            1    LIG   0.0000
  47 H            6.4499    -0.9227    -0.3059 H            1    LIG   0.0000
  48 H            7.1039    -3.4940    -0.2607 H            1    LIG   0.0000
  49 H            4.0927    -4.2406     1.5279 H            1    LIG   0.0000
  50 H            3.4635    -6.3791     2.3978 H            1    LIG   0.0000
  51 H            4.9073    -8.2615     2.0997 H            1    LIG   0.0000
  52 H            6.8280    -9.2321     1.3166 H            1    LIG   0.0000
  53 H            7.3983    -8.6225    -0.0868 H            1    LIG   0.0000
  54 H            8.1484    -8.2713     1.3206 H            1    LIG   0.0000
  55 H            8.5402    -6.6844    -0.2314 H            1    LIG   0.0000
  56 H            7.8795    -5.4883    -1.1255 H            1    LIG   0.0000
  57 H            8.6296    -5.1368     0.2818 H            1    LIG   0.0000
  58 H            6.0413    -0.5676     3.0630 H            1    LIG   0.0000
  59 H            5.2447    -0.0139     5.2372 H            1    LIG   0.0000
  60 H            3.0884     1.0253     5.4773 H            1    LIG   0.0000
  61 H            1.8007     1.4930     3.5270 H            1    LIG   0.0000
  62 H           -0.7735     2.9670     1.3513 H            1    LIG   0.0000
  63 H           -3.0626     3.6405     1.5773 H            1    LIG   0.0000
@<TRIPOS>BOND
   1        1        2 1
   2        2        3 1
   3        3        4 1
   4        4        5 ar
   5        5        6 ar
   6        6        7 ar
   7        7        8 1
   8        8        9 am
   9        9       10 2
  10        9       11 am
  11       11       12 1
  12       12       13 1
  13       13       14 2
  14       13       15 am
  15       15       16 1
  16       16       17 1
  17       17       18 2
  18       17       19 am
  19       19       20 1
  20       20       21 ar
  21       21       22 ar
  22       22       23 ar
  23       23       24 ar
  24       24       25 1
  25       24       26 ar
  26       26       20 ar
  27       26       27 1
  28       15       28 1
  29       28       29 ar
  30       29       30 ar
  31       30       31 ar
  32       31       32 ar
  33       32       33 ar
  34       33       28 ar
  35       33       11 1
  36        7       34 ar
  37       34       35 ar
  38       35        4 ar
  39        1       36 1
  40        1       37 1
  41        1       38 1
  42        2       39 1
  43        2       40 1
  44        5       41 1
  45        6       42 1
  46        8       43 1
  47       12       44 1
  48       12       45 1
  49       16       46 1
  50       16       47 1
  51       19       48 1
  52       21       49 1
  53       22       50 1
  54       23       51 1
  55       25       52 1
  56       25       53 1
  57       25       54 1
  58       27       55 1
  59       27       56 1
  60       27       57 1
  61       29       58 1
  62       30       59 1
  63       31       60 1
  64       32       61 1
  65       34       62 1
  66       35       63 1

@<TRIPOS>MOLECULE

  63   66
SMALL
USER_CHARGES
@<TRIPOS>ATOM
   1 C1          -3.6039     5.1202     3.4052 C.3          1    LIG   0.0000
   2 C2          -4.6563     4.1267     3.8697 C.3          1    LIG   0.0000
   3 O3          -4.6409     2.9890     3.0202 O.3          1    LIG   0.0000
   4 C4          -3.4270     2.4377     2.8092 C.ar         1    LIG   0.0000
   5 C5          -2.3910     2.6999     3.6997 C.ar         1    LIG   0.0000
   6 C6          -1.1436     2.1259     3.4757 C.ar         1    LIG   0.0000
   7 C7          -0.9448     1.3019     2.3725 C.ar         1    LIG   0.0000
   8 N8           0.3150     0.7299     2.1553 N.am         1    LIG   0.0000
   9 C9           1.0000     1.0000     1.0000 C.2          1    LIG   0.0000
  10 O10          0.4000     1.2366    -0.0119 O.2          1    LIG   0.0000
  11 N11          2.4053     1.0000     1.0000 N.am         1    LIG   0.0000
  12 C12          3.0792     1.2998    -0.2708 C.3          1    LIG   0.0000
  13 C13          4.2638     0.3581    -0.4124 C.2          1    LIG   0.0000
  14 O14          4.6588     0.1144    -1.5381 O.2          1    LIG   0.0000
  15 N15          4.8500    -0.2020     0.7261 N.am         1    LIG   0.0000
  16 C16          5.9544    -1.1538     0.5314 C.3          1    LIG   0.0000
  17 C17          5.3950    -2.5625     0.4166 C.2          1    LIG   0.0000
  18 O18          4.2113    -2.7457     0.4894 O.2          1    LIG   0.0000
  19 N19          6.2421    -3.6229     0.2299 N.am         1    LIG   0.0000
  20 C20          5.9012    -4.8870     0.7262 C.ar         1    LIG   0.0000
  21 C21          4.6950    -5.0292     1.4043 C.ar         1    LIG   0.0000
  22 C22          4.3297    -6.2725     1.9097 C.ar         1    LIG   0.0000
  23 C23          5.1695    -7.3676     1.7360 C.ar         1    LIG   0.0000
  24 C24          6.3740    -7.2194     1.0565 C.ar         1    LIG   0.0000
  25 C25          7.2632    -8.4408     0.8872 C.3          1    LIG   0.0000
  26 C26          6.7462    -5.9779     0.5483 C.ar         1    LIG   0.0000
  27 C27          8.0614    -5.8072    -0.1953 C.3          1    LIG   0.0000
  28 C28          4.3986     0.1265     2.0128 C.ar         1    LIG   0.0000
  29 C29          5.1449    -0.1347     3.1586 C.ar         1    LIG   0.0000
  30 C30          4.6859     0.1861     4.4324 C.ar         1    LIG   0.0000
  31 C31          3.4407     0.7882     4.5719 C.ar         1    LIG   0.0000
  32 C32          2.6943     1.0547     3.4303 C.ar         1    LIG   0.0000
  33 C33          3.1527     0.7299     2.1552 C.ar         1    LIG   0.0000
  34 C34         -1.9870     1.0457     1.4879 C.ar         1    LIG   0.0000
  35 C35         -3.2374     1.6148     1.7037 C.ar         1    LIG   0.0000
  36 H           -3.6148     5.9214     4.0035 H            1    LIG   0.0000
  37 H           -2.7016     4.6906     3.4399 H            1    LIG   0.0000
  38 H           -3.8030     5.4023     2.4667 H            1    LIG   0.0000
  39 H           -4.4573     3.8446     4.8083 H            1    LIG   0.0000
  40 H           -5.5587     4.5564     3.8351 H            1    LIG   0.0000
  41 H           -2.5409     3.2932     4.4906 H            1    LIG   0.0000
  42 H           -0.3897     2.3057     4.1077 H            1    LIG   0.0000
  43 H            0.7145     0.1243     2.8435 H            1    LIG   0.0000
  44 H            3.3982     2.2475    -0.2696 H            1    LIG   0.0000
  45 H            2.4446     1.1626    -1.0313 H            1    LIG   0.0000
  46 H            6.5778    -1.1053     1.3118 H            1    LIG   0.0000
  47 H            6.4499    -0.9227    -0.3059 H            1    LIG   0.0000
  48 H            7.1039    -3.4940    -0.2607 H            1    LIG   0.0000
  49 H            4.0927    -4.2406     1.5279 H            1    LIG   0.0000
  50 H            3.4635    -6.3791     2.3978 H            1    LIG   0.0000
  51 H            4.9073    -8.2615     2.0997 H            1    LIG   0.0000
  52 H            6.8280    -9.2321     1.3166 H            1    LIG   0.0000
  53 H            7.3983    -8.6225    -0.0868 H            1    LIG   0.0000
  54 H            8.1484    -8.2713     1.3206 H            1    LIG   0.0000
  55 H            8.5402    -6.6844    -0.2314 H            1    LIG   0.0000
  56 H            7.8795    -5.4883    -1.1255 H            1    LIG   0.0000
  57 H            8.6296    -5.1368     0.2818 H            1    LIG   0.0000
  58 H            6.0413    -0.5676     3.0630 H            1    LIG   0.0000
  59 H            5.2447    -0.0139     5.2372 H            1    LIG   0.0000
  60 H            3.0884     1.0253     5.4773 H            1    LIG   0.0000
  61 H            1.8007     1.4930     3.5270 H            1    LIG   0.0000
  62 H           -1.8372     0.4525     0.6970 H            1    LIG   0.0000
  63 H           -3.9912     1.4346     1.0718 H            1    LIG   0.0000
@<TRIPOS>BOND
   1        1        2 1
   2        2        3 1
   3        3        4 1
   4        4        5 ar
   5        5        6 ar
   6        6        7 ar
   7        7        8 1
   8        8        9 am
   9        9       10 2
  10        9       11 am
  11       11       12 1
  12       12       13 1
  13       13       14 2
  14       13       15 am
  15       15       16 1
  16       16       17 1
  17       17       18 2
  18       17       19 am
  19       19       20 1
  20       20       21 ar
  21       21       22 ar
  22       22       23 ar
  23       23       24 ar
  24       24       25 1
  25       24       26 ar
  26       26       20 ar
  27       26       27 1
  28       15       28 1
  29       28       29 ar
  30       29       30 ar
  31       30       31 ar
  32       31       32 ar
  33       32       33 ar
  34       33       28 ar
  35       33       11 1
  36        7       34 ar
  37       34       35 ar
  38       35        4 ar
  39        1       36 1
  40        1       37 1
  41        1       38 1
  42        2       39 1
  43        2       40 1
  44        5       41 1
  45        6       42 1
  46        8       43 1
  47       12       44 1
  48       12       45 1
  49       16       46 1
  50       16       47 1
  51       19       48 1
  52       21       49 1
  53       22       50 1
  54       23       51 1
  55       25       52 1
  56       25       53 1
  57       25       54 1
  58       27       55 1
  59       27       56 1
  60       27       57 1
  61       29       58 1
  62       30       59 1
  63       31       60 1
  64       32       61 1
  65       34       62 1
  66       35       63 1

@<TRIPOS>MOLECULE

  63   66
SMALL
USER_CHARGES
@<TRIPOS>ATOM
   1 C1          -5.6439     0.0087     2.4545 C.3          1    LIG   0.0000
   2 C2          -5.8995     1.4508     2.0479 C.3          1    LIG   0.0000
   3 O3          -4.9470     2.2958     2.6766 O.3          1    LIG   0.0000
   4 C4          -3.6585     1.9143     2.5496 C.ar         1    LIG   0.0000
   5 C5          -2.7084     2.4010     3.4416 C.ar         1    LIG   0.0000
   6 C6          -1.3829     2.0011     3.3046 C.ar         1    LIG   0.0000
   7 C7          -1.0222     1.1255     2.2854 C.ar         1    LIG   0.0000
   8 N8           0.3150     0.7299     2.1553 N.am         1    LIG   0.0000
   9 C9           1.0000     1.0000     1.0000 C.2          1    LIG   0.0000
  10 O10          0.4000     1.2366    -0.0119 O.2          1    LIG   0.0000
  11 N11          2.4053     1.0000     1.0000 N.am         1    LIG   0.0000
  12 C12          3.0792     1.2998    -0.2708 C.3          1    LIG   0.0000
  13 C13          4.2638     0.3581    -0.4124 C.2          1    LIG   0.0000
  14 O14          4.6588     0.1144    -1.5381 O.2          1    LIG   0.0000
  15 N15          4.8500    -0.2020     0.7261 N.am         1    LIG   0.0000
  16 C16          5.9544    -1.1538     0.5314 C.3          1    LIG   0.0000
  17 C17          5.3950    -2.5625     0.4166 C.2          1    LIG   0.0000
  18 O18          4.2113    -2.7457     0.4894 O.2          1    LIG   0.0000
  19 N19          6.2421    -3.6229     0.2299 N.am         1    LIG   0.0000
  20 C20          5.9012    -4.8870     0.7262 C.ar         1    LIG   0.0000
  21 C21          5.1158    -4.9590     1.8721 C.ar         1    LIG   0.0000
  22 C22          4.7620    -6.2008     2.3894 C.ar         1    LIG   0.0000
  23 C23          5.1933    -7.3643     1.7609 C.ar         1    LIG   0.0000
  24 C24          5.9776    -7.2858     0.6150 C.ar         1    LIG   0.0000
  25 C25          6.4280    -8.5806    -0.0424 C.3          1    LIG   0.0000
  26 C26          6.3360    -6.0465     0.0919 C.ar         1    LIG   0.0000
  27 C27          7.1936    -5.9520    -1.1600 C.3          1    LIG   0.0000
  28 C28          4.3986     0.1265     2.0128 C.ar         1    LIG   0.0000
  29 C29          5.1449    -0.1347     3.1586 C.ar         1    LIG   0.0000
  30 C30          4.6859     0.1861     4.4324 C.ar         1    LIG   0.0000
  31 C31          3.4407     0.7882     4.5719 C.ar         1    LIG   0.0000
  32 C32          2.6943     1.0547     3.4303 C.ar         1    LIG   0.0000
  33 C33          3.1527     0.7299     2.1552 C.ar         1    LIG   0.0000
  34 C34         -1.9794     0.6443     1.3986 C.ar         1    LIG   0.0000
  35 C35         -3.3068     1.0383     1.5278 C.ar         1    LIG   0.0000
  36 H           -6.3146    -0.5864     2.0117 H            1    LIG   0.0000
  37 H           -4.7228    -0.2591     2.1718 H            1    LIG   0.0000
  38 H           -5.7260    -0.0773     3.4474 H            1    LIG   0.0000
  39 H           -5.8174     1.5368     1.0550 H            1    LIG   0.0000
  40 H           -6.8206     1.7186     2.3306 H            1    LIG   0.0000
  41 H           -2.9748     3.0301     4.1718 H            1    LIG   0.0000
  42 H           -0.6895     2.3431     3.9387 H            1    LIG   0.0000
  43 H            0.7698     0.2502     2.9057 H            1    LIG   0.0000
  44 H            3.3982     2.2475    -0.2696 H            1    LIG   0.0000
  45 H            2.4446     1.1626    -1.0313 H            1    LIG   0.0000
  46 H            6.5778    -1.1053     1.3118 H            1    LIG   0.0000
  47 H            6.4499    -0.9227    -0.3059 H            1    LIG   0.0000
  48 H            7.1039    -3.4940    -0.2607 H            1    LIG   0.0000
  49 H            4.8068    -4.1213     2.3223 H            1    LIG   0.0000
  50 H            4.1976    -6.2570     3.2130 H            1    LIG   0.0000
  51 H            4.9394    -8.2571     2.1329 H            1    LIG   0.0000
  52 H            6.0729    -9.3586     0.4758 H            1    LIG   0.0000
  53 H            6.0800    -8.6173    -0.9792 H            1    LIG   0.0000
  54 H            7.4272    -8.6174    -0.0563 H            1    LIG   0.0000
  55 H            7.4149    -6.8723    -1.4827 H            1    LIG   0.0000
  56 H            6.6914    -5.4610    -1.8718 H            1    LIG   0.0000
  57 H            8.0386    -5.4606    -0.9490 H            1    LIG   0.0000
  58 H            6.0413    -0.5676     3.0630 H            1    LIG   0.0000
  59 H            5.2447    -0.0139     5.2372 H            1    LIG   0.0000
  60 H            3.0884     1.0253     5.4773 H            1    LIG   0.0000
  61 H            1.8007     1.4930     3.5270 H            1    LIG   0.0000
  62 H           -1.7132     0.0152     0.6682 H            1    LIG   0.0000
  63 H           -4.0002     0.6960     0.8937 H            1    LIG   0.0000
@<TRIPOS>BOND
   1        1        2 1
   2        2        3 1
   3        3        4 1
   4        4        5 ar
   5        5        6 ar
   6        6        7 ar
   7        7        8 1
   8        8        9 am
   9        9       10 2
  10        9       11 am
  11       11       12 1
  12       12       13 1
  13       13       14 2
  14       13       15 am
  15       15       16 1
  16       16       17 1
  17       17       18 2
  18       17       19 am
  19       19       20 1
  20       20       21 ar
  21       21       22 ar
  22       22       23 ar
  23       23       24 ar
  24       24       25 1
  25       24       26 ar
  26       26       20 ar
  27       26       27 1
  28       15       28 1
  29       28       29 ar
  30       29       30 ar
  31       30       31 ar
  32       31       32 ar
  33       32       33 ar
  34       33       28 ar
  35       33       11 1
  36        7       34 ar
  37       34       35 ar
  38       35        4 ar
  39        1       36 1
  40        1       37 1
  41        1       38 1
  42        2       39 1
  43        2       40 1
  44        5       41 1
  45        6       42 1
  46        8       43 1
  47       12       44 1
  48       12       45 1
  49       16       46 1
  50       16       47 1
  51       19       48 1
  52       21       49 1
  53       22       50 1
  54       23       51 1
  55       25       52 1
  56       25       53 1
  57       25       54 1
  58       27       55 1
  59       27       56 1
  60       27       57 1
  61       29       58 1
  62       30       59 1
  63       31       60 1
  64       32       61 1
  65       34       62 1
  66       35       63 1

