@<TRIPOS>MOLECULE
*****
 63 66 0 0 0
SMALL
USER_CHARGES

@<TRIPOS>ATOM
      1 C1         -4.3861    4.4661    1.8517 C.3     1  LIG1        0.0000
      2 C2         -5.3739    3.3121    1.7966 C.3     1  LIG1        0.0000
      3 O3         -4.9503    2.2838    2.6795 O.2     1  LIG1        0.0000
      4 C4         -3.6612    1.9039    2.5532 C.3     1  LIG1        0.0000
      5 C5         -3.0374    1.2363    3.6021 C.3     1  LIG1        0.0000
      6 C6         -1.7092    0.8465    3.4626 C.3     1  LIG1        0.0000
      7 C7         -1.0222    1.1255    2.2854 C.3     1  LIG1        0.0000
      8 N8          0.3150    0.7299    2.1553 N.am    1  LIG1        0.0000
      9 C9          1.0000    1.0000    1.0000 C.2     1  LIG1        0.0000
     10 O10         0.4000    1.2366   -0.0119 O.2     1  LIG1        0.0000
     11 N11         2.4053    1.0000    1.0000 N.am    1  LIG1        0.0000
     12 C12         3.0792    1.2998   -0.2708 C.3     1  LIG1        0.0000
     13 C13         4.2638    0.3581   -0.4124 C.2     1  LIG1        0.0000
     14 O14         4.6588    0.1144   -1.5381 O.2     1  LIG1        0.0000
     15 N15         4.8500   -0.2020    0.7261 N.am    1  LIG1        0.0000
     16 C16         5.9544   -1.1538    0.5314 C.3     1  LIG1        0.0000
     17 C17         5.3950   -2.5625    0.4166 C.2     1  LIG1        0.0000
     18 O18         4.2113   -2.7457    0.4894 O.2     1  LIG1        0.0000
     19 N19         6.2421   -3.6229    0.2299 N.am    1  LIG1        0.0000
     20 C20         5.7515   -4.8285   -0.2860 C.3     1  LIG1        0.0000
     21 C21         4.7539   -5.4937    0.4194 C.3     1  LIG1        0.0000
     22 C22         4.2475   -6.6941   -0.0677 C.3     1  LIG1        0.0000
     23 C23         4.7386   -7.2247   -1.2559 C.3     1  LIG1        0.0000
     24 C24         5.7354   -6.5546   -1.9572 C.3     1  LIG1        0.0000
     25 C25         6.2446   -7.1674   -3.2520 C.3     1  LIG1        0.0000
     26 C26         6.2473   -5.3530   -1.4755 C.3     1  LIG1        0.0000
     27 C27         7.3374   -4.6144   -2.2357 C.3     1  LIG1        0.0000
     28 C28         4.3986    0.1265    2.0128 C.3     1  LIG1        0.0000
     29 C29         5.1449   -0.1347    3.1586 C.3     1  LIG1        0.0000
     30 C30         4.6859    0.1861    4.4324 C.3     1  LIG1        0.0000
     31 C31         3.4407    0.7882    4.5719 C.3     1  LIG1        0.0000
     32 C32         2.6943    1.0547    3.4303 C.3     1  LIG1        0.0000
     33 C33         3.1527    0.7299    2.1552 C.3     1  LIG1        0.0000
     34 C34        -1.6546    1.7934    1.2422 C.3     1  LIG1        0.0000
     35 C35        -2.9821    2.1867    1.3724 C.3     1  LIG1        0.0000
     36 H          -4.6844    5.1902    1.2299 H       1  LIG1        0.0000
     37 H          -4.3436    4.8242    2.7844 H       1  LIG1        0.0000
     38 H          -3.4804    4.1430    1.5771 H       1  LIG1        0.0000
     39 H          -6.2795    3.6351    2.0712 H       1  LIG1        0.0000
     40 H          -5.4163    2.9540    0.8638 H       1  LIG1        0.0000
     41 H          -3.5372    1.0391    4.4454 H       1  LIG1        0.0000
     42 H          -1.2482    0.3658    4.2085 H       1  LIG1        0.0000
     43 H           0.7698    0.2502    2.9057 H       1  LIG1        0.0000
     44 H           3.3982    2.2475   -0.2696 H       1  LIG1        0.0000
     45 H           2.4446    1.1626   -1.0313 H       1  LIG1        0.0000
     46 H           6.5778   -1.1053    1.3118 H       1  LIG1        0.0000
     47 H           6.4499   -0.9227   -0.3059 H       1  LIG1        0.0000
     48 H           7.2108   -3.5358    0.4622 H       1  LIG1        0.0000
     49 H           4.4023   -5.1103    1.2734 H       1  LIG1        0.0000
     50 H           3.5305   -7.1755    0.4363 H       1  LIG1        0.0000
     51 H           4.3749   -8.0880   -1.6060 H       1  LIG1        0.0000
     52 H           5.7586   -8.0231   -3.4296 H       1  LIG1        0.0000
     53 H           6.0860   -6.5310   -4.0069 H       1  LIG1        0.0000
     54 H           7.2243   -7.3510   -3.1712 H       1  LIG1        0.0000
     55 H           7.5742   -5.1271   -3.0609 H       1  LIG1        0.0000
     56 H           7.0083   -3.7053   -2.4911 H       1  LIG1        0.0000
     57 H           8.1467   -4.5250   -1.6551 H       1  LIG1        0.0000
     58 H           6.0413   -0.5676    3.0630 H       1  LIG1        0.0000
     59 H           5.2447   -0.0139    5.2372 H       1  LIG1        0.0000
     60 H           3.0884    1.0253    5.4773 H       1  LIG1        0.0000
     61 H           1.8007    1.4930    3.5270 H       1  LIG1        0.0000
     62 H          -1.1550    1.9907    0.3988 H       1  LIG1        0.0000
     63 H          -3.4431    2.6671    0.6263 H       1  LIG1        0.0000
@<TRIPOS>BOND
     1     1     2    1
     2     2     3    1
     3     3     4    1
     4     4     5   ar
     5     5     6   ar
     6     6     7   ar
     7     7     8    1
     8     8     9   am
     9     9    10    2
    10     9    11   am
    11    11    12    1
    12    12    13    1
    13    13    14    2
    14    13    15   am
    15    15    16    1
    16    16    17    1
    17    17    18    2
    18    17    19   am
    19    19    20    1
    20    20    21   ar
    21    21    22   ar
    22    22    23   ar
    23    23    24   ar
    24    24    25    1
    25    24    26   ar
    26    26    20   ar
    27    26    27    1
    28    15    28    1
    29    28    29   ar
    30    29    30   ar
    31    30    31   ar
    32    31    32   ar
    33    32    33   ar
    34    33    28   ar
    35    33    11    1
    36     7    34   ar
    37    34    35   ar
    38    35     4   ar
    39     1    36    1
    40     1    37    1
    41     1    38    1
    42     2    39    1
    43     2    40    1
    44     5    41    1
    45     6    42    1
    46     8    43    1
    47    12    44    1
    48    12    45    1
    49    16    46    1
    50    16    47    1
    51    19    48    1
    52    21    49    1
    53    22    50    1
    54    23    51    1
    55    25    52    1
    56    25    53    1
    57    25    54    1
    58    27    55    1
    59    27    56    1
    60    27    57    1
    61    29    58    1
    62    30    59    1
    63    31    60    1
    64    32    61    1
    65    34    62    1
    66    35    63    1
