@<TRIPOS>MOLECULE
*****
 63 66 0 0 0
SMALL
USER_CHARGES

@<TRIPOS>ATOM
      1 C1         -4.8469    1.8425    5.0325 C.3     1  LIG1        0.0000
      2 C2         -5.3111    2.8047    3.9513 C.3     1  LIG1        0.0000
      3 O3         -4.9470    2.2958    2.6766 O.2     1  LIG1        0.0000
      4 C4         -3.6585    1.9143    2.5496 C.3     1  LIG1        0.0000
      5 C5         -2.7084    2.4010    3.4416 C.3     1  LIG1        0.0000
      6 C6         -1.3829    2.0011    3.3046 C.3     1  LIG1        0.0000
      7 C7         -1.0222    1.1255    2.2854 C.3     1  LIG1        0.0000
      8 N8          0.3150    0.7299    2.1553 N.am    1  LIG1        0.0000
      9 C9          1.0000    1.0000    1.0000 C.2     1  LIG1        0.0000
     10 O10         0.4000    1.2366   -0.0119 O.2     1  LIG1        0.0000
     11 N11         2.4053    1.0000    1.0000 N.am    1  LIG1        0.0000
     12 C12         3.0792    1.2998   -0.2708 C.3     1  LIG1        0.0000
     13 C13         4.2638    0.3581   -0.4124 C.2     1  LIG1        0.0000
     14 O14         4.6588    0.1144   -1.5381 O.2     1  LIG1        0.0000
     15 N15         4.8500   -0.2020    0.7261 N.am    1  LIG1        0.0000
     16 C16         5.9544   -1.1538    0.5314 C.3     1  LIG1        0.0000
     17 C17         5.3950   -2.5625    0.4166 C.2     1  LIG1        0.0000
     18 O18         4.2113   -2.7457    0.4894 O.2     1  LIG1        0.0000
     19 N19         6.2421   -3.6229    0.2299 N.am    1  LIG1        0.0000
     20 C20         5.8063   -4.7514   -0.4750 C.3     1  LIG1        0.0000
     21 C21         5.8050   -5.9801    0.1772 C.3     1  LIG1        0.0000
     22 C22         5.3786   -7.1192   -0.4976 C.3     1  LIG1        0.0000
     23 C23         4.9556   -7.0268   -1.8194 C.3     1  LIG1        0.0000
     24 C24         4.9584   -5.7954   -2.4660 C.3     1  LIG1        0.0000
     25 C25         4.4880   -5.7366   -3.9105 C.3     1  LIG1        0.0000
     26 C26         5.3843   -4.6512   -1.7970 C.3     1  LIG1        0.0000
     27 C27         5.3910   -3.3013   -2.4967 C.3     1  LIG1        0.0000
     28 C28         4.3986    0.1265    2.0128 C.3     1  LIG1        0.0000
     29 C29         5.1449   -0.1347    3.1586 C.3     1  LIG1        0.0000
     30 C30         4.6859    0.1861    4.4324 C.3     1  LIG1        0.0000
     31 C31         3.4407    0.7882    4.5719 C.3     1  LIG1        0.0000
     32 C32         2.6943    1.0547    3.4303 C.3     1  LIG1        0.0000
     33 C33         3.1527    0.7299    2.1552 C.3     1  LIG1        0.0000
     34 C34        -1.9794    0.6443    1.3986 C.3     1  LIG1        0.0000
     35 C35        -3.3068    1.0383    1.5278 C.3     1  LIG1        0.0000
     36 H          -5.1033    2.2009    5.9302 H       1  LIG1        0.0000
     37 H          -5.2789    0.9514    4.8936 H       1  LIG1        0.0000
     38 H          -3.8531    1.7421    4.9851 H       1  LIG1        0.0000
     39 H          -6.3049    2.9051    3.9987 H       1  LIG1        0.0000
     40 H          -4.8791    3.6958    4.0902 H       1  LIG1        0.0000
     41 H          -2.9748    3.0301    4.1718 H       1  LIG1        0.0000
     42 H          -0.6895    2.3431    3.9387 H       1  LIG1        0.0000
     43 H           0.7698    0.2502    2.9057 H       1  LIG1        0.0000
     44 H           3.3982    2.2475   -0.2696 H       1  LIG1        0.0000
     45 H           2.4446    1.1626   -1.0313 H       1  LIG1        0.0000
     46 H           6.5778   -1.1053    1.3118 H       1  LIG1        0.0000
     47 H           6.4499   -0.9227   -0.3059 H       1  LIG1        0.0000
     48 H           7.1716   -3.5909    0.5972 H       1  LIG1        0.0000
     49 H           6.1094   -6.0442    1.1276 H       1  LIG1        0.0000
     50 H           5.3761   -8.0044   -0.0324 H       1  LIG1        0.0000
     51 H           4.6495   -7.8458   -2.3048 H       1  LIG1        0.0000
     52 H           4.2247   -6.6527   -4.2128 H       1  LIG1        0.0000
     53 H           3.7010   -5.1236   -3.9800 H       1  LIG1        0.0000
     54 H           5.2289   -5.3948   -4.4887 H       1  LIG1        0.0000
     55 H           5.0598   -3.4100   -3.4340 H       1  LIG1        0.0000
     56 H           4.7947   -2.6675   -2.0040 H       1  LIG1        0.0000
     57 H           6.3227   -2.9385   -2.5123 H       1  LIG1        0.0000
     58 H           6.0413   -0.5676    3.0630 H       1  LIG1        0.0000
     59 H           5.2447   -0.0139    5.2372 H       1  LIG1        0.0000
     60 H           3.0884    1.0253    5.4773 H       1  LIG1        0.0000
     61 H           1.8007    1.4930    3.5270 H       1  LIG1        0.0000
     62 H          -1.7132    0.0152    0.6682 H       1  LIG1        0.0000
     63 H          -4.0002    0.6960    0.8937 H       1  LIG1        0.0000
@<TRIPOS>BOND
     1     1     2    1
     2     2     3    1
     3     3     4    1
     4     4     5   ar
     5     5     6   ar
     6     6     7   ar
     7     7     8    1
     8     8     9   am
     9     9    10    2
    10     9    11   am
    11    11    12    1
    12    12    13    1
    13    13    14    2
    14    13    15   am
    15    15    16    1
    16    16    17    1
    17    17    18    2
    18    17    19   am
    19    19    20    1
    20    20    21   ar
    21    21    22   ar
    22    22    23   ar
    23    23    24   ar
    24    24    25    1
    25    24    26   ar
    26    26    20   ar
    27    26    27    1
    28    15    28    1
    29    28    29   ar
    30    29    30   ar
    31    30    31   ar
    32    31    32   ar
    33    32    33   ar
    34    33    28   ar
    35    33    11    1
    36     7    34   ar
    37    34    35   ar
    38    35     4   ar
    39     1    36    1
    40     1    37    1
    41     1    38    1
    42     2    39    1
    43     2    40    1
    44     5    41    1
    45     6    42    1
    46     8    43    1
    47    12    44    1
    48    12    45    1
    49    16    46    1
    50    16    47    1
    51    19    48    1
    52    21    49    1
    53    22    50    1
    54    23    51    1
    55    25    52    1
    56    25    53    1
    57    25    54    1
    58    27    55    1
    59    27    56    1
    60    27    57    1
    61    29    58    1
    62    30    59    1
    63    31    60    1
    64    32    61    1
    65    34    62    1
    66    35    63    1
