@<TRIPOS>MOLECULE

  65   69
SMALL
USER_CHARGES
@<TRIPOS>ATOM
   1 C1           3.4414     2.5496    -0.4341 C.3          1    LIG   0.0000
   2 C2           2.0971     2.1984    -1.0531 C.2          1    LIG   0.0000
   3 N3           1.7045     2.4674    -2.2750 N.2          1    LIG   0.0000
   4 N4           0.4915     2.0206    -2.4848 N.pl3        1    LIG   0.0000
   5 C5          -0.2210     2.1366    -3.6847 C.ar         1    LIG   0.0000
   6 C6          -0.1453     3.3156    -4.4189 C.ar         1    LIG   0.0000
   7 C7          -0.8570     3.4223    -5.6092 C.ar         1    LIG   0.0000
   8 C8          -1.6336     2.3567    -6.0541 C.ar         1    LIG   0.0000
   9 C9          -1.7032     1.1813    -5.3135 C.ar         1    LIG   0.0000
  10 C10         -0.9950     1.0665    -4.1214 C.ar         1    LIG   0.0000
  11 C11          0.0357     1.4263    -1.3528 C.2          1    LIG   0.0000
  12 O12         -1.1742     0.8501    -1.1773 O.3          1    LIG   0.0000
  13 C13          1.0316     1.5191    -0.4283 C.2          1    LIG   0.0000
  14 C14          1.0000     1.0000     1.0000 C.3          1    LIG   0.0000
  15 C15          1.8776     1.8776     1.8776 C.ar         1    LIG   0.0000
  16 C16          1.3216     2.9852     2.5104 C.ar         1    LIG   0.0000
  17 C17          2.1296     3.7840     3.3122 C.ar         1    LIG   0.0000
  18 C18          3.4761     3.4721     3.4729 C.ar         1    LIG   0.0000
  19 N19          4.2854     4.2803     4.2806 N.pl3        1    LIG   0.0000
  20 C20          5.7085     3.9555     4.4539 C.3          1    LIG   0.0000
  21 C21          3.7118     5.4536     4.9553 C.3          1    LIG   0.0000
  22 C22          4.0315     2.3643     2.8410 C.ar         1    LIG   0.0000
  23 C23          3.2232     1.5650     2.0396 C.ar         1    LIG   0.0000
  24 C24         -0.4283     1.0316     1.5191 C.2          1    LIG   0.0000
  25 C25         -1.0886     0.0076     2.2279 C.2          1    LIG   0.0000
  26 C26         -0.5111    -1.3411     2.6290 C.3          1    LIG   0.0000
  27 N27         -2.2994     0.4453     2.4770 N.2          1    LIG   0.0000
  28 N28         -2.4684     1.6512     1.9951 N.pl3        1    LIG   0.0000
  29 C29         -3.6420     2.4086     2.0937 C.ar         1    LIG   0.0000
  30 C30         -4.8770     1.7880     1.9374 C.ar         1    LIG   0.0000
  31 C31         -6.0376     2.5482     2.0362 C.ar         1    LIG   0.0000
  32 C32         -5.9557     3.9141     2.2892 C.ar         1    LIG   0.0000
  33 C33         -4.7164     4.5265     2.4445 C.ar         1    LIG   0.0000
  34 C34         -3.5506     3.7735     2.3465 C.ar         1    LIG   0.0000
  35 C35         -1.3231     2.0498     1.3853 C.2          1    LIG   0.0000
  36 O36         -1.1103     3.2320     0.7658 O.3          1    LIG   0.0000
  37 H            3.4684     2.2238     0.5110 H            1    LIG   0.0000
  38 H            4.1735     2.1141    -0.9578 H            1    LIG   0.0000
  39 H            3.5659     3.5417    -0.4484 H            1    LIG   0.0000
  40 H            0.4145     4.0781    -4.0946 H            1    LIG   0.0000
  41 H           -0.8105     4.2651    -6.1455 H            1    LIG   0.0000
  42 H           -2.1441     2.4364    -6.9102 H            1    LIG   0.0000
  43 H           -2.2625     0.4184    -5.6380 H            1    LIG   0.0000
  44 H           -1.0419     0.2241    -3.5846 H            1    LIG   0.0000
  45 H           -1.4089     0.4386    -0.2966 H            1    LIG   0.0000
  46 H            1.3415     0.0603     1.0208 H            1    LIG   0.0000
  47 H            0.3533     3.2039     2.3900 H            1    LIG   0.0000
  48 H            1.7430     4.5827     3.7733 H            1    LIG   0.0000
  49 H            6.1335     4.6305     5.0571 H            1    LIG   0.0000
  50 H            5.7958     3.0452     4.8586 H            1    LIG   0.0000
  51 H            6.1645     3.9698     3.5640 H            1    LIG   0.0000
  52 H            4.4234     5.9136     5.4865 H            1    LIG   0.0000
  53 H            3.3453     6.0851     4.2720 H            1    LIG   0.0000
  54 H            2.9766     5.1604     5.5665 H            1    LIG   0.0000
  55 H            4.9998     2.1454     2.9614 H            1    LIG   0.0000
  56 H            3.6095     0.7654     1.5797 H            1    LIG   0.0000
  57 H            0.4340    -1.4075     2.3090 H            1    LIG   0.0000
  58 H           -0.5329    -1.4302     3.6248 H            1    LIG   0.0000
  59 H           -1.0547    -2.0723     2.2169 H            1    LIG   0.0000
  60 H           -4.9299     0.8060     1.7559 H            1    LIG   0.0000
  61 H           -6.9311     2.1131     1.9253 H            1    LIG   0.0000
  62 H           -6.7919     4.4581     2.3598 H            1    LIG   0.0000
  63 H           -4.6634     5.5084     2.6267 H            1    LIG   0.0000
  64 H           -2.6570     4.2086     2.4566 H            1    LIG   0.0000
  65 H           -0.2230     3.4242     0.3466 H            1    LIG   0.0000
@<TRIPOS>BOND
   1        1        2 1
   2        2        3 2
   3        3        4 1
   4        4        5 1
   5        5        6 ar
   6        6        7 ar
   7        7        8 ar
   8        8        9 ar
   9        9       10 ar
  10       10        5 ar
  11        4       11 1
  12       11       12 1
  13       11       13 2
  14       13        2 1
  15       13       14 1
  16       14       15 1
  17       15       16 ar
  18       16       17 ar
  19       17       18 ar
  20       18       19 1
  21       19       20 1
  22       19       21 1
  23       18       22 ar
  24       22       23 ar
  25       23       15 ar
  26       14       24 1
  27       24       25 1
  28       25       26 1
  29       25       27 2
  30       27       28 1
  31       28       29 1
  32       29       30 ar
  33       30       31 ar
  34       31       32 ar
  35       32       33 ar
  36       33       34 ar
  37       34       29 ar
  38       28       35 1
  39       35       24 2
  40       35       36 1
  41        1       37 1
  42        1       38 1
  43        1       39 1
  44        6       40 1
  45        7       41 1
  46        8       42 1
  47        9       43 1
  48       10       44 1
  49       12       45 1
  50       14       46 1
  51       16       47 1
  52       17       48 1
  53       20       49 1
  54       20       50 1
  55       20       51 1
  56       21       52 1
  57       21       53 1
  58       21       54 1
  59       22       55 1
  60       23       56 1
  61       26       57 1
  62       26       58 1
  63       26       59 1
  64       30       60 1
  65       31       61 1
  66       32       62 1
  67       33       63 1
  68       34       64 1
  69       36       65 1

@<TRIPOS>MOLECULE

  65   69
SMALL
USER_CHARGES
@<TRIPOS>ATOM
   1 C1           3.4414     2.5496    -0.4341 C.3          1    LIG   0.0000
   2 C2           2.0971     2.1984    -1.0531 C.2          1    LIG   0.0000
   3 N3           1.7045     2.4674    -2.2750 N.2          1    LIG   0.0000
   4 N4           0.4915     2.0206    -2.4848 N.pl3        1    LIG   0.0000
   5 C5          -0.2210     2.1366    -3.6847 C.ar         1    LIG   0.0000
   6 C6          -0.1453     3.3156    -4.4189 C.ar         1    LIG   0.0000
   7 C7          -0.8570     3.4223    -5.6092 C.ar         1    LIG   0.0000
   8 C8          -1.6336     2.3567    -6.0541 C.ar         1    LIG   0.0000
   9 C9          -1.7032     1.1813    -5.3135 C.ar         1    LIG   0.0000
  10 C10         -0.9950     1.0665    -4.1214 C.ar         1    LIG   0.0000
  11 C11          0.0357     1.4263    -1.3528 C.2          1    LIG   0.0000
  12 O12         -1.1742     0.8501    -1.1773 O.3          1    LIG   0.0000
  13 C13          1.0316     1.5191    -0.4283 C.2          1    LIG   0.0000
  14 C14          1.0000     1.0000     1.0000 C.3          1    LIG   0.0000
  15 C15          1.8776     1.8776     1.8776 C.ar         1    LIG   0.0000
  16 C16          1.3216     2.9852     2.5104 C.ar         1    LIG   0.0000
  17 C17          2.1296     3.7840     3.3122 C.ar         1    LIG   0.0000
  18 C18          3.4761     3.4721     3.4729 C.ar         1    LIG   0.0000
  19 N19          4.2854     4.2803     4.2806 N.pl3        1    LIG   0.0000
  20 C20          5.7085     3.9555     4.4539 C.3          1    LIG   0.0000
  21 C21          3.7118     5.4536     4.9553 C.3          1    LIG   0.0000
  22 C22          4.0315     2.3643     2.8410 C.ar         1    LIG   0.0000
  23 C23          3.2232     1.5650     2.0396 C.ar         1    LIG   0.0000
  24 C24         -0.4283     1.0316     1.5191 C.2          1    LIG   0.0000
  25 C25         -1.0886     0.0076     2.2279 C.2          1    LIG   0.0000
  26 C26         -0.5111    -1.3411     2.6290 C.3          1    LIG   0.0000
  27 N27         -2.2994     0.4453     2.4770 N.2          1    LIG   0.0000
  28 N28         -2.4684     1.6512     1.9951 N.pl3        1    LIG   0.0000
  29 C29         -3.6420     2.4086     2.0937 C.ar         1    LIG   0.0000
  30 C30         -3.5779     3.7210     2.5503 C.ar         1    LIG   0.0000
  31 C31         -4.7487     4.4658     2.6457 C.ar         1    LIG   0.0000
  32 C32         -5.9669     3.8972     2.2862 C.ar         1    LIG   0.0000
  33 C33         -6.0216     2.5841     1.8304 C.ar         1    LIG   0.0000
  34 C34         -4.8553     1.8319     1.7326 C.ar         1    LIG   0.0000
  35 C35         -1.3231     2.0498     1.3853 C.2          1    LIG   0.0000
  36 O36         -1.1103     3.2320     0.7658 O.3          1    LIG   0.0000
  37 H            3.4684     2.2238     0.5110 H            1    LIG   0.0000
  38 H            4.1735     2.1141    -0.9578 H            1    LIG   0.0000
  39 H            3.5659     3.5417    -0.4484 H            1    LIG   0.0000
  40 H            0.4145     4.0781    -4.0946 H            1    LIG   0.0000
  41 H           -0.8105     4.2651    -6.1455 H            1    LIG   0.0000
  42 H           -2.1441     2.4364    -6.9102 H            1    LIG   0.0000
  43 H           -2.2625     0.4184    -5.6380 H            1    LIG   0.0000
  44 H           -1.0419     0.2241    -3.5846 H            1    LIG   0.0000
  45 H           -1.4089     0.4386    -0.2966 H            1    LIG   0.0000
  46 H            1.3415     0.0603     1.0208 H            1    LIG   0.0000
  47 H            0.3533     3.2039     2.3900 H            1    LIG   0.0000
  48 H            1.7430     4.5827     3.7733 H            1    LIG   0.0000
  49 H            6.1335     4.6305     5.0571 H            1    LIG   0.0000
  50 H            5.7958     3.0452     4.8586 H            1    LIG   0.0000
  51 H            6.1645     3.9698     3.5640 H            1    LIG   0.0000
  52 H            4.4234     5.9136     5.4865 H            1    LIG   0.0000
  53 H            3.3453     6.0851     4.2720 H            1    LIG   0.0000
  54 H            2.9766     5.1604     5.5665 H            1    LIG   0.0000
  55 H            4.9998     2.1454     2.9614 H            1    LIG   0.0000
  56 H            3.6095     0.7654     1.5797 H            1    LIG   0.0000
  57 H            0.4340    -1.4075     2.3090 H            1    LIG   0.0000
  58 H           -0.5329    -1.4302     3.6248 H            1    LIG   0.0000
  59 H           -1.0547    -2.0723     2.2169 H            1    LIG   0.0000
  60 H           -2.6997     4.1246     2.8071 H            1    LIG   0.0000
  61 H           -4.7151     5.4102     2.9728 H            1    LIG   0.0000
  62 H           -6.8070     4.4351     2.3559 H            1    LIG   0.0000
  63 H           -6.8996     2.1806     1.5730 H            1    LIG   0.0000
  64 H           -4.8888     0.8873     1.4062 H            1    LIG   0.0000
  65 H           -0.2230     3.4242     0.3466 H            1    LIG   0.0000
@<TRIPOS>BOND
   1        1        2 1
   2        2        3 2
   3        3        4 1
   4        4        5 1
   5        5        6 ar
   6        6        7 ar
   7        7        8 ar
   8        8        9 ar
   9        9       10 ar
  10       10        5 ar
  11        4       11 1
  12       11       12 1
  13       11       13 2
  14       13        2 1
  15       13       14 1
  16       14       15 1
  17       15       16 ar
  18       16       17 ar
  19       17       18 ar
  20       18       19 1
  21       19       20 1
  22       19       21 1
  23       18       22 ar
  24       22       23 ar
  25       23       15 ar
  26       14       24 1
  27       24       25 1
  28       25       26 1
  29       25       27 2
  30       27       28 1
  31       28       29 1
  32       29       30 ar
  33       30       31 ar
  34       31       32 ar
  35       32       33 ar
  36       33       34 ar
  37       34       29 ar
  38       28       35 1
  39       35       24 2
  40       35       36 1
  41        1       37 1
  42        1       38 1
  43        1       39 1
  44        6       40 1
  45        7       41 1
  46        8       42 1
  47        9       43 1
  48       10       44 1
  49       12       45 1
  50       14       46 1
  51       16       47 1
  52       17       48 1
  53       20       49 1
  54       20       50 1
  55       20       51 1
  56       21       52 1
  57       21       53 1
  58       21       54 1
  59       22       55 1
  60       23       56 1
  61       26       57 1
  62       26       58 1
  63       26       59 1
  64       30       60 1
  65       31       61 1
  66       32       62 1
  67       33       63 1
  68       34       64 1
  69       36       65 1

@<TRIPOS>MOLECULE

  65   69
SMALL
USER_CHARGES
@<TRIPOS>ATOM
   1 C1           3.4414     2.5496    -0.4341 C.3          1    LIG   0.0000
   2 C2           2.0971     2.1984    -1.0531 C.2          1    LIG   0.0000
   3 N3           1.7045     2.4674    -2.2750 N.2          1    LIG   0.0000
   4 N4           0.4915     2.0206    -2.4848 N.pl3        1    LIG   0.0000
   5 C5          -0.2210     2.1366    -3.6847 C.ar         1    LIG   0.0000
   6 C6          -0.1453     3.3156    -4.4189 C.ar         1    LIG   0.0000
   7 C7          -0.8570     3.4223    -5.6092 C.ar         1    LIG   0.0000
   8 C8          -1.6336     2.3567    -6.0541 C.ar         1    LIG   0.0000
   9 C9          -1.7032     1.1813    -5.3135 C.ar         1    LIG   0.0000
  10 C10         -0.9950     1.0665    -4.1214 C.ar         1    LIG   0.0000
  11 C11          0.0357     1.4263    -1.3528 C.2          1    LIG   0.0000
  12 O12         -1.1742     0.8501    -1.1773 O.3          1    LIG   0.0000
  13 C13          1.0316     1.5191    -0.4283 C.2          1    LIG   0.0000
  14 C14          1.0000     1.0000     1.0000 C.3          1    LIG   0.0000
  15 C15          1.8776     1.8776     1.8776 C.ar         1    LIG   0.0000
  16 C16          1.3216     2.9852     2.5104 C.ar         1    LIG   0.0000
  17 C17          2.1296     3.7840     3.3122 C.ar         1    LIG   0.0000
  18 C18          3.4761     3.4721     3.4729 C.ar         1    LIG   0.0000
  19 N19          4.2854     4.2803     4.2806 N.pl3        1    LIG   0.0000
  20 C20          5.7085     3.9555     4.4539 C.3          1    LIG   0.0000
  21 C21          3.7118     5.4536     4.9553 C.3          1    LIG   0.0000
  22 C22          4.0315     2.3643     2.8410 C.ar         1    LIG   0.0000
  23 C23          3.2232     1.5650     2.0396 C.ar         1    LIG   0.0000
  24 C24         -0.4283     1.0316     1.5191 C.2          1    LIG   0.0000
  25 C25         -1.0886     0.0076     2.2279 C.2          1    LIG   0.0000
  26 C26         -0.5111    -1.3411     2.6290 C.3          1    LIG   0.0000
  27 N27         -2.2994     0.4453     2.4770 N.2          1    LIG   0.0000
  28 N28         -2.4684     1.6512     1.9951 N.pl3        1    LIG   0.0000
  29 C29         -3.6420     2.4086     2.0937 C.ar         1    LIG   0.0000
  30 C30         -4.1780     2.9990     0.9540 C.ar         1    LIG   0.0000
  31 C31         -5.3437     3.7503     1.0613 C.ar         1    LIG   0.0000
  32 C32         -5.9611     3.9046     2.2989 C.ar         1    LIG   0.0000
  33 C33         -5.4182     3.3104     3.4334 C.ar         1    LIG   0.0000
  34 C34         -4.2521     2.5579     3.3349 C.ar         1    LIG   0.0000
  35 C35         -1.3231     2.0498     1.3853 C.2          1    LIG   0.0000
  36 O36         -1.1103     3.2320     0.7658 O.3          1    LIG   0.0000
  37 H            3.4684     2.2238     0.5110 H            1    LIG   0.0000
  38 H            4.1735     2.1141    -0.9578 H            1    LIG   0.0000
  39 H            3.5659     3.5417    -0.4484 H            1    LIG   0.0000
  40 H            0.4145     4.0781    -4.0946 H            1    LIG   0.0000
  41 H           -0.8105     4.2651    -6.1455 H            1    LIG   0.0000
  42 H           -2.1441     2.4364    -6.9102 H            1    LIG   0.0000
  43 H           -2.2625     0.4184    -5.6380 H            1    LIG   0.0000
  44 H           -1.0419     0.2241    -3.5846 H            1    LIG   0.0000
  45 H           -1.4089     0.4386    -0.2966 H            1    LIG   0.0000
  46 H            1.3415     0.0603     1.0208 H            1    LIG   0.0000
  47 H            0.3533     3.2039     2.3900 H            1    LIG   0.0000
  48 H            1.7430     4.5827     3.7733 H            1    LIG   0.0000
  49 H            6.1335     4.6305     5.0571 H            1    LIG   0.0000
  50 H            5.7958     3.0452     4.8586 H            1    LIG   0.0000
  51 H            6.1645     3.9698     3.5640 H            1    LIG   0.0000
  52 H            4.4234     5.9136     5.4865 H            1    LIG   0.0000
  53 H            3.3453     6.0851     4.2720 H            1    LIG   0.0000
  54 H            2.9766     5.1604     5.5665 H            1    LIG   0.0000
  55 H            4.9998     2.1454     2.9614 H            1    LIG   0.0000
  56 H            3.6095     0.7654     1.5797 H            1    LIG   0.0000
  57 H            0.4340    -1.4075     2.3090 H            1    LIG   0.0000
  58 H           -0.5329    -1.4302     3.6248 H            1    LIG   0.0000
  59 H           -1.0547    -2.0723     2.2169 H            1    LIG   0.0000
  60 H           -3.7303     2.8846     0.0672 H            1    LIG   0.0000
  61 H           -5.7382     4.1796     0.2489 H            1    LIG   0.0000
  62 H           -6.7990     4.4453     2.3729 H            1    LIG   0.0000
  63 H           -5.8662     3.4242     4.3202 H            1    LIG   0.0000
  64 H           -3.8570     2.1291     4.1473 H            1    LIG   0.0000
  65 H           -0.2230     3.4242     0.3466 H            1    LIG   0.0000
@<TRIPOS>BOND
   1        1        2 1
   2        2        3 2
   3        3        4 1
   4        4        5 1
   5        5        6 ar
   6        6        7 ar
   7        7        8 ar
   8        8        9 ar
   9        9       10 ar
  10       10        5 ar
  11        4       11 1
  12       11       12 1
  13       11       13 2
  14       13        2 1
  15       13       14 1
  16       14       15 1
  17       15       16 ar
  18       16       17 ar
  19       17       18 ar
  20       18       19 1
  21       19       20 1
  22       19       21 1
  23       18       22 ar
  24       22       23 ar
  25       23       15 ar
  26       14       24 1
  27       24       25 1
  28       25       26 1
  29       25       27 2
  30       27       28 1
  31       28       29 1
  32       29       30 ar
  33       30       31 ar
  34       31       32 ar
  35       32       33 ar
  36       33       34 ar
  37       34       29 ar
  38       28       35 1
  39       35       24 2
  40       35       36 1
  41        1       37 1
  42        1       38 1
  43        1       39 1
  44        6       40 1
  45        7       41 1
  46        8       42 1
  47        9       43 1
  48       10       44 1
  49       12       45 1
  50       14       46 1
  51       16       47 1
  52       17       48 1
  53       20       49 1
  54       20       50 1
  55       20       51 1
  56       21       52 1
  57       21       53 1
  58       21       54 1
  59       22       55 1
  60       23       56 1
  61       26       57 1
  62       26       58 1
  63       26       59 1
  64       30       60 1
  65       31       61 1
  66       32       62 1
  67       33       63 1
  68       34       64 1
  69       36       65 1

@<TRIPOS>MOLECULE

  65   69
SMALL
USER_CHARGES
@<TRIPOS>ATOM
   1 C1           3.4414     2.5496    -0.4341 C.3          1    LIG   0.0000
   2 C2           2.0971     2.1984    -1.0531 C.2          1    LIG   0.0000
   3 N3           1.7045     2.4674    -2.2750 N.2          1    LIG   0.0000
   4 N4           0.4915     2.0206    -2.4848 N.pl3        1    LIG   0.0000
   5 C5          -0.2210     2.1366    -3.6847 C.ar         1    LIG   0.0000
   6 C6           0.4377     1.9567    -4.8966 C.ar         1    LIG   0.0000
   7 C7          -0.2777     2.0745    -6.0835 C.ar         1    LIG   0.0000
   8 C8          -1.6374     2.3690    -6.0506 C.ar         1    LIG   0.0000
   9 C9          -2.2881     2.5470    -4.8341 C.ar         1    LIG   0.0000
  10 C10         -1.5797     2.4316    -3.6423 C.ar         1    LIG   0.0000
  11 C11          0.0357     1.4263    -1.3528 C.2          1    LIG   0.0000
  12 O12         -1.1742     0.8501    -1.1773 O.3          1    LIG   0.0000
  13 C13          1.0316     1.5191    -0.4283 C.2          1    LIG   0.0000
  14 C14          1.0000     1.0000     1.0000 C.3          1    LIG   0.0000
  15 C15          1.8776     1.8776     1.8776 C.ar         1    LIG   0.0000
  16 C16          1.3216     2.9852     2.5104 C.ar         1    LIG   0.0000
  17 C17          2.1296     3.7840     3.3122 C.ar         1    LIG   0.0000
  18 C18          3.4761     3.4721     3.4729 C.ar         1    LIG   0.0000
  19 N19          4.2854     4.2803     4.2806 N.pl3        1    LIG   0.0000
  20 C20          5.7085     3.9555     4.4539 C.3          1    LIG   0.0000
  21 C21          3.7118     5.4536     4.9553 C.3          1    LIG   0.0000
  22 C22          4.0315     2.3643     2.8410 C.ar         1    LIG   0.0000
  23 C23          3.2232     1.5650     2.0396 C.ar         1    LIG   0.0000
  24 C24         -0.4283     1.0316     1.5191 C.2          1    LIG   0.0000
  25 C25         -1.0886     0.0076     2.2279 C.2          1    LIG   0.0000
  26 C26         -0.5111    -1.3411     2.6290 C.3          1    LIG   0.0000
  27 N27         -2.2994     0.4453     2.4770 N.2          1    LIG   0.0000
  28 N28         -2.4684     1.6512     1.9951 N.pl3        1    LIG   0.0000
  29 C29         -3.6420     2.4086     2.0937 C.ar         1    LIG   0.0000
  30 C30         -4.3735     2.3938     3.2768 C.ar         1    LIG   0.0000
  31 C31         -5.5384     3.1486     3.3657 C.ar         1    LIG   0.0000
  32 C32         -5.9606     3.9079     2.2786 C.ar         1    LIG   0.0000
  33 C33         -5.2228     3.9170     1.0994 C.ar         1    LIG   0.0000
  34 C34         -4.0567     3.1644     1.0020 C.ar         1    LIG   0.0000
  35 C35         -1.3231     2.0498     1.3853 C.2          1    LIG   0.0000
  36 O36         -1.1103     3.2320     0.7658 O.3          1    LIG   0.0000
  37 H            3.4684     2.2238     0.5110 H            1    LIG   0.0000
  38 H            4.1735     2.1141    -0.9578 H            1    LIG   0.0000
  39 H            3.5659     3.5417    -0.4484 H            1    LIG   0.0000
  40 H            1.4149     1.7450    -4.9142 H            1    LIG   0.0000
  41 H            0.1851     1.9475    -6.9608 H            1    LIG   0.0000
  42 H           -2.1492     2.4530    -6.9057 H            1    LIG   0.0000
  43 H           -3.2654     2.7580    -4.8163 H            1    LIG   0.0000
  44 H           -2.0422     2.5593    -2.7649 H            1    LIG   0.0000
  45 H           -1.4089     0.4386    -0.2966 H            1    LIG   0.0000
  46 H            1.3415     0.0603     1.0208 H            1    LIG   0.0000
  47 H            0.3533     3.2039     2.3900 H            1    LIG   0.0000
  48 H            1.7430     4.5827     3.7733 H            1    LIG   0.0000
  49 H            6.1335     4.6305     5.0571 H            1    LIG   0.0000
  50 H            5.7958     3.0452     4.8586 H            1    LIG   0.0000
  51 H            6.1645     3.9698     3.5640 H            1    LIG   0.0000
  52 H            4.4234     5.9136     5.4865 H            1    LIG   0.0000
  53 H            3.3453     6.0851     4.2720 H            1    LIG   0.0000
  54 H            2.9766     5.1604     5.5665 H            1    LIG   0.0000
  55 H            4.9998     2.1454     2.9614 H            1    LIG   0.0000
  56 H            3.6095     0.7654     1.5797 H            1    LIG   0.0000
  57 H            0.4340    -1.4075     2.3090 H            1    LIG   0.0000
  58 H           -0.5329    -1.4302     3.6248 H            1    LIG   0.0000
  59 H           -1.0547    -2.0723     2.2169 H            1    LIG   0.0000
  60 H           -4.0652     1.8465     4.0549 H            1    LIG   0.0000
  61 H           -6.0726     3.1456     4.2110 H            1    LIG   0.0000
  62 H           -6.7986     4.4496     2.3455 H            1    LIG   0.0000
  63 H           -5.5306     4.4648     0.3215 H            1    LIG   0.0000
  64 H           -3.5227     3.1666     0.1565 H            1    LIG   0.0000
  65 H           -0.2230     3.4242     0.3466 H            1    LIG   0.0000
@<TRIPOS>BOND
   1        1        2 1
   2        2        3 2
   3        3        4 1
   4        4        5 1
   5        5        6 ar
   6        6        7 ar
   7        7        8 ar
   8        8        9 ar
   9        9       10 ar
  10       10        5 ar
  11        4       11 1
  12       11       12 1
  13       11       13 2
  14       13        2 1
  15       13       14 1
  16       14       15 1
  17       15       16 ar
  18       16       17 ar
  19       17       18 ar
  20       18       19 1
  21       19       20 1
  22       19       21 1
  23       18       22 ar
  24       22       23 ar
  25       23       15 ar
  26       14       24 1
  27       24       25 1
  28       25       26 1
  29       25       27 2
  30       27       28 1
  31       28       29 1
  32       29       30 ar
  33       30       31 ar
  34       31       32 ar
  35       32       33 ar
  36       33       34 ar
  37       34       29 ar
  38       28       35 1
  39       35       24 2
  40       35       36 1
  41        1       37 1
  42        1       38 1
  43        1       39 1
  44        6       40 1
  45        7       41 1
  46        8       42 1
  47        9       43 1
  48       10       44 1
  49       12       45 1
  50       14       46 1
  51       16       47 1
  52       17       48 1
  53       20       49 1
  54       20       50 1
  55       20       51 1
  56       21       52 1
  57       21       53 1
  58       21       54 1
  59       22       55 1
  60       23       56 1
  61       26       57 1
  62       26       58 1
  63       26       59 1
  64       30       60 1
  65       31       61 1
  66       32       62 1
  67       33       63 1
  68       34       64 1
  69       36       65 1

@<TRIPOS>MOLECULE

  65   69
SMALL
USER_CHARGES
@<TRIPOS>ATOM
   1 C1           3.4414     2.5496    -0.4341 C.3          1    LIG   0.0000
   2 C2           2.0971     2.1984    -1.0531 C.2          1    LIG   0.0000
   3 N3           1.7045     2.4674    -2.2750 N.2          1    LIG   0.0000
   4 N4           0.4915     2.0206    -2.4848 N.pl3        1    LIG   0.0000
   5 C5          -0.2210     2.1366    -3.6847 C.ar         1    LIG   0.0000
   6 C6          -0.8258     1.0125    -4.2375 C.ar         1    LIG   0.0000
   7 C7          -1.5309     1.1368    -5.4299 C.ar         1    LIG   0.0000
   8 C8          -1.6260     2.3756    -6.0568 C.ar         1    LIG   0.0000
   9 C9          -1.0182     3.4945    -5.4967 C.ar         1    LIG   0.0000
  10 C10         -0.3105     3.3788    -4.3045 C.ar         1    LIG   0.0000
  11 C11          0.0357     1.4263    -1.3528 C.2          1    LIG   0.0000
  12 O12         -1.1742     0.8501    -1.1773 O.3          1    LIG   0.0000
  13 C13          1.0316     1.5191    -0.4283 C.2          1    LIG   0.0000
  14 C14          1.0000     1.0000     1.0000 C.3          1    LIG   0.0000
  15 C15          1.8776     1.8776     1.8776 C.ar         1    LIG   0.0000
  16 C16          1.3216     2.9852     2.5104 C.ar         1    LIG   0.0000
  17 C17          2.1296     3.7840     3.3122 C.ar         1    LIG   0.0000
  18 C18          3.4761     3.4721     3.4729 C.ar         1    LIG   0.0000
  19 N19          4.2854     4.2803     4.2806 N.pl3        1    LIG   0.0000
  20 C20          5.7085     3.9555     4.4539 C.3          1    LIG   0.0000
  21 C21          3.7118     5.4536     4.9553 C.3          1    LIG   0.0000
  22 C22          4.0315     2.3643     2.8410 C.ar         1    LIG   0.0000
  23 C23          3.2232     1.5650     2.0396 C.ar         1    LIG   0.0000
  24 C24         -0.4283     1.0316     1.5191 C.2          1    LIG   0.0000
  25 C25         -1.0886     0.0076     2.2279 C.2          1    LIG   0.0000
  26 C26         -0.5111    -1.3411     2.6290 C.3          1    LIG   0.0000
  27 N27         -2.2994     0.4453     2.4770 N.2          1    LIG   0.0000
  28 N28         -2.4684     1.6512     1.9951 N.pl3        1    LIG   0.0000
  29 C29         -3.6420     2.4086     2.0937 C.ar         1    LIG   0.0000
  30 C30         -4.8770     1.7880     1.9374 C.ar         1    LIG   0.0000
  31 C31         -6.0376     2.5482     2.0362 C.ar         1    LIG   0.0000
  32 C32         -5.9557     3.9141     2.2892 C.ar         1    LIG   0.0000
  33 C33         -4.7164     4.5265     2.4445 C.ar         1    LIG   0.0000
  34 C34         -3.5506     3.7735     2.3465 C.ar         1    LIG   0.0000
  35 C35         -1.3231     2.0498     1.3853 C.2          1    LIG   0.0000
  36 O36         -1.1103     3.2320     0.7658 O.3          1    LIG   0.0000
  37 H            3.4684     2.2238     0.5110 H            1    LIG   0.0000
  38 H            4.1735     2.1141    -0.9578 H            1    LIG   0.0000
  39 H            3.5659     3.5417    -0.4484 H            1    LIG   0.0000
  40 H           -0.7544     0.1249    -3.7826 H            1    LIG   0.0000
  41 H           -1.9697     0.3357    -5.8370 H            1    LIG   0.0000
  42 H           -2.1337     2.4618    -6.9140 H            1    LIG   0.0000
  43 H           -1.0901     4.3824    -5.9511 H            1    LIG   0.0000
  44 H            0.1291     4.1796    -3.8977 H            1    LIG   0.0000
  45 H           -1.4089     0.4386    -0.2966 H            1    LIG   0.0000
  46 H            1.3415     0.0603     1.0208 H            1    LIG   0.0000
  47 H            0.3533     3.2039     2.3900 H            1    LIG   0.0000
  48 H            1.7430     4.5827     3.7733 H            1    LIG   0.0000
  49 H            6.1335     4.6305     5.0571 H            1    LIG   0.0000
  50 H            5.7958     3.0452     4.8586 H            1    LIG   0.0000
  51 H            6.1645     3.9698     3.5640 H            1    LIG   0.0000
  52 H            4.4234     5.9136     5.4865 H            1    LIG   0.0000
  53 H            3.3453     6.0851     4.2720 H            1    LIG   0.0000
  54 H            2.9766     5.1604     5.5665 H            1    LIG   0.0000
  55 H            4.9998     2.1454     2.9614 H            1    LIG   0.0000
  56 H            3.6095     0.7654     1.5797 H            1    LIG   0.0000
  57 H            0.4340    -1.4075     2.3090 H            1    LIG   0.0000
  58 H           -0.5329    -1.4302     3.6248 H            1    LIG   0.0000
  59 H           -1.0547    -2.0723     2.2169 H            1    LIG   0.0000
  60 H           -4.9299     0.8060     1.7559 H            1    LIG   0.0000
  61 H           -6.9311     2.1131     1.9253 H            1    LIG   0.0000
  62 H           -6.7919     4.4581     2.3598 H            1    LIG   0.0000
  63 H           -4.6634     5.5084     2.6267 H            1    LIG   0.0000
  64 H           -2.6570     4.2086     2.4566 H            1    LIG   0.0000
  65 H           -0.2230     3.4242     0.3466 H            1    LIG   0.0000
@<TRIPOS>BOND
   1        1        2 1
   2        2        3 2
   3        3        4 1
   4        4        5 1
   5        5        6 ar
   6        6        7 ar
   7        7        8 ar
   8        8        9 ar
   9        9       10 ar
  10       10        5 ar
  11        4       11 1
  12       11       12 1
  13       11       13 2
  14       13        2 1
  15       13       14 1
  16       14       15 1
  17       15       16 ar
  18       16       17 ar
  19       17       18 ar
  20       18       19 1
  21       19       20 1
  22       19       21 1
  23       18       22 ar
  24       22       23 ar
  25       23       15 ar
  26       14       24 1
  27       24       25 1
  28       25       26 1
  29       25       27 2
  30       27       28 1
  31       28       29 1
  32       29       30 ar
  33       30       31 ar
  34       31       32 ar
  35       32       33 ar
  36       33       34 ar
  37       34       29 ar
  38       28       35 1
  39       35       24 2
  40       35       36 1
  41        1       37 1
  42        1       38 1
  43        1       39 1
  44        6       40 1
  45        7       41 1
  46        8       42 1
  47        9       43 1
  48       10       44 1
  49       12       45 1
  50       14       46 1
  51       16       47 1
  52       17       48 1
  53       20       49 1
  54       20       50 1
  55       20       51 1
  56       21       52 1
  57       21       53 1
  58       21       54 1
  59       22       55 1
  60       23       56 1
  61       26       57 1
  62       26       58 1
  63       26       59 1
  64       30       60 1
  65       31       61 1
  66       32       62 1
  67       33       63 1
  68       34       64 1
  69       36       65 1

@<TRIPOS>MOLECULE

  65   69
SMALL
USER_CHARGES
@<TRIPOS>ATOM
   1 C1           3.4414     2.5496    -0.4341 C.3          1    LIG   0.0000
   2 C2           2.0971     2.1984    -1.0531 C.2          1    LIG   0.0000
   3 N3           1.7045     2.4674    -2.2750 N.2          1    LIG   0.0000
   4 N4           0.4915     2.0206    -2.4848 N.pl3        1    LIG   0.0000
   5 C5          -0.2210     2.1366    -3.6847 C.ar         1    LIG   0.0000
   6 C6          -0.8258     1.0125    -4.2375 C.ar         1    LIG   0.0000
   7 C7          -1.5309     1.1368    -5.4299 C.ar         1    LIG   0.0000
   8 C8          -1.6260     2.3756    -6.0568 C.ar         1    LIG   0.0000
   9 C9          -1.0182     3.4945    -5.4967 C.ar         1    LIG   0.0000
  10 C10         -0.3105     3.3788    -4.3045 C.ar         1    LIG   0.0000
  11 C11          0.0357     1.4263    -1.3528 C.2          1    LIG   0.0000
  12 O12         -1.1742     0.8501    -1.1773 O.3          1    LIG   0.0000
  13 C13          1.0316     1.5191    -0.4283 C.2          1    LIG   0.0000
  14 C14          1.0000     1.0000     1.0000 C.3          1    LIG   0.0000
  15 C15          1.8776     1.8776     1.8776 C.ar         1    LIG   0.0000
  16 C16          1.3216     2.9852     2.5104 C.ar         1    LIG   0.0000
  17 C17          2.1296     3.7840     3.3122 C.ar         1    LIG   0.0000
  18 C18          3.4761     3.4721     3.4729 C.ar         1    LIG   0.0000
  19 N19          4.2854     4.2803     4.2806 N.pl3        1    LIG   0.0000
  20 C20          5.7085     3.9555     4.4539 C.3          1    LIG   0.0000
  21 C21          3.7118     5.4536     4.9553 C.3          1    LIG   0.0000
  22 C22          4.0315     2.3643     2.8410 C.ar         1    LIG   0.0000
  23 C23          3.2232     1.5650     2.0396 C.ar         1    LIG   0.0000
  24 C24         -0.4283     1.0316     1.5191 C.2          1    LIG   0.0000
  25 C25         -1.0886     0.0076     2.2279 C.2          1    LIG   0.0000
  26 C26         -0.5111    -1.3411     2.6290 C.3          1    LIG   0.0000
  27 N27         -2.2994     0.4453     2.4770 N.2          1    LIG   0.0000
  28 N28         -2.4684     1.6512     1.9951 N.pl3        1    LIG   0.0000
  29 C29         -3.6420     2.4086     2.0937 C.ar         1    LIG   0.0000
  30 C30         -3.5779     3.7210     2.5503 C.ar         1    LIG   0.0000
  31 C31         -4.7487     4.4658     2.6457 C.ar         1    LIG   0.0000
  32 C32         -5.9669     3.8972     2.2862 C.ar         1    LIG   0.0000
  33 C33         -6.0216     2.5841     1.8304 C.ar         1    LIG   0.0000
  34 C34         -4.8553     1.8319     1.7326 C.ar         1    LIG   0.0000
  35 C35         -1.3231     2.0498     1.3853 C.2          1    LIG   0.0000
  36 O36         -1.1103     3.2320     0.7658 O.3          1    LIG   0.0000
  37 H            3.4684     2.2238     0.5110 H            1    LIG   0.0000
  38 H            4.1735     2.1141    -0.9578 H            1    LIG   0.0000
  39 H            3.5659     3.5417    -0.4484 H            1    LIG   0.0000
  40 H           -0.7544     0.1249    -3.7826 H            1    LIG   0.0000
  41 H           -1.9697     0.3357    -5.8370 H            1    LIG   0.0000
  42 H           -2.1337     2.4618    -6.9140 H            1    LIG   0.0000
  43 H           -1.0901     4.3824    -5.9511 H            1    LIG   0.0000
  44 H            0.1291     4.1796    -3.8977 H            1    LIG   0.0000
  45 H           -1.4089     0.4386    -0.2966 H            1    LIG   0.0000
  46 H            1.3415     0.0603     1.0208 H            1    LIG   0.0000
  47 H            0.3533     3.2039     2.3900 H            1    LIG   0.0000
  48 H            1.7430     4.5827     3.7733 H            1    LIG   0.0000
  49 H            6.1335     4.6305     5.0571 H            1    LIG   0.0000
  50 H            5.7958     3.0452     4.8586 H            1    LIG   0.0000
  51 H            6.1645     3.9698     3.5640 H            1    LIG   0.0000
  52 H            4.4234     5.9136     5.4865 H            1    LIG   0.0000
  53 H            3.3453     6.0851     4.2720 H            1    LIG   0.0000
  54 H            2.9766     5.1604     5.5665 H            1    LIG   0.0000
  55 H            4.9998     2.1454     2.9614 H            1    LIG   0.0000
  56 H            3.6095     0.7654     1.5797 H            1    LIG   0.0000
  57 H            0.4340    -1.4075     2.3090 H            1    LIG   0.0000
  58 H           -0.5329    -1.4302     3.6248 H            1    LIG   0.0000
  59 H           -1.0547    -2.0723     2.2169 H            1    LIG   0.0000
  60 H           -2.6997     4.1246     2.8071 H            1    LIG   0.0000
  61 H           -4.7151     5.4102     2.9728 H            1    LIG   0.0000
  62 H           -6.8070     4.4351     2.3559 H            1    LIG   0.0000
  63 H           -6.8996     2.1806     1.5730 H            1    LIG   0.0000
  64 H           -4.8888     0.8873     1.4062 H            1    LIG   0.0000
  65 H           -0.2230     3.4242     0.3466 H            1    LIG   0.0000
@<TRIPOS>BOND
   1        1        2 1
   2        2        3 2
   3        3        4 1
   4        4        5 1
   5        5        6 ar
   6        6        7 ar
   7        7        8 ar
   8        8        9 ar
   9        9       10 ar
  10       10        5 ar
  11        4       11 1
  12       11       12 1
  13       11       13 2
  14       13        2 1
  15       13       14 1
  16       14       15 1
  17       15       16 ar
  18       16       17 ar
  19       17       18 ar
  20       18       19 1
  21       19       20 1
  22       19       21 1
  23       18       22 ar
  24       22       23 ar
  25       23       15 ar
  26       14       24 1
  27       24       25 1
  28       25       26 1
  29       25       27 2
  30       27       28 1
  31       28       29 1
  32       29       30 ar
  33       30       31 ar
  34       31       32 ar
  35       32       33 ar
  36       33       34 ar
  37       34       29 ar
  38       28       35 1
  39       35       24 2
  40       35       36 1
  41        1       37 1
  42        1       38 1
  43        1       39 1
  44        6       40 1
  45        7       41 1
  46        8       42 1
  47        9       43 1
  48       10       44 1
  49       12       45 1
  50       14       46 1
  51       16       47 1
  52       17       48 1
  53       20       49 1
  54       20       50 1
  55       20       51 1
  56       21       52 1
  57       21       53 1
  58       21       54 1
  59       22       55 1
  60       23       56 1
  61       26       57 1
  62       26       58 1
  63       26       59 1
  64       30       60 1
  65       31       61 1
  66       32       62 1
  67       33       63 1
  68       34       64 1
  69       36       65 1

@<TRIPOS>MOLECULE

  65   69
SMALL
USER_CHARGES
@<TRIPOS>ATOM
   1 C1           3.4414     2.5496    -0.4341 C.3          1    LIG   0.0000
   2 C2           2.0971     2.1984    -1.0531 C.2          1    LIG   0.0000
   3 N3           1.7045     2.4674    -2.2750 N.2          1    LIG   0.0000
   4 N4           0.4915     2.0206    -2.4848 N.pl3        1    LIG   0.0000
   5 C5          -0.2210     2.1366    -3.6847 C.ar         1    LIG   0.0000
   6 C6          -0.8258     1.0125    -4.2375 C.ar         1    LIG   0.0000
   7 C7          -1.5309     1.1368    -5.4299 C.ar         1    LIG   0.0000
   8 C8          -1.6260     2.3756    -6.0568 C.ar         1    LIG   0.0000
   9 C9          -1.0182     3.4945    -5.4967 C.ar         1    LIG   0.0000
  10 C10         -0.3105     3.3788    -4.3045 C.ar         1    LIG   0.0000
  11 C11          0.0357     1.4263    -1.3528 C.2          1    LIG   0.0000
  12 O12         -1.1742     0.8501    -1.1773 O.3          1    LIG   0.0000
  13 C13          1.0316     1.5191    -0.4283 C.2          1    LIG   0.0000
  14 C14          1.0000     1.0000     1.0000 C.3          1    LIG   0.0000
  15 C15          1.8776     1.8776     1.8776 C.ar         1    LIG   0.0000
  16 C16          1.3216     2.9852     2.5104 C.ar         1    LIG   0.0000
  17 C17          2.1296     3.7840     3.3122 C.ar         1    LIG   0.0000
  18 C18          3.4761     3.4721     3.4729 C.ar         1    LIG   0.0000
  19 N19          4.2854     4.2803     4.2806 N.pl3        1    LIG   0.0000
  20 C20          5.7085     3.9555     4.4539 C.3          1    LIG   0.0000
  21 C21          3.7118     5.4536     4.9553 C.3          1    LIG   0.0000
  22 C22          4.0315     2.3643     2.8410 C.ar         1    LIG   0.0000
  23 C23          3.2232     1.5650     2.0396 C.ar         1    LIG   0.0000
  24 C24         -0.4283     1.0316     1.5191 C.2          1    LIG   0.0000
  25 C25         -1.0886     0.0076     2.2279 C.2          1    LIG   0.0000
  26 C26         -0.5111    -1.3411     2.6290 C.3          1    LIG   0.0000
  27 N27         -2.2994     0.4453     2.4770 N.2          1    LIG   0.0000
  28 N28         -2.4684     1.6512     1.9951 N.pl3        1    LIG   0.0000
  29 C29         -3.6420     2.4086     2.0937 C.ar         1    LIG   0.0000
  30 C30         -4.1780     2.9990     0.9540 C.ar         1    LIG   0.0000
  31 C31         -5.3437     3.7503     1.0613 C.ar         1    LIG   0.0000
  32 C32         -5.9611     3.9046     2.2989 C.ar         1    LIG   0.0000
  33 C33         -5.4182     3.3104     3.4334 C.ar         1    LIG   0.0000
  34 C34         -4.2521     2.5579     3.3349 C.ar         1    LIG   0.0000
  35 C35         -1.3231     2.0498     1.3853 C.2          1    LIG   0.0000
  36 O36         -1.1103     3.2320     0.7658 O.3          1    LIG   0.0000
  37 H            3.4684     2.2238     0.5110 H            1    LIG   0.0000
  38 H            4.1735     2.1141    -0.9578 H            1    LIG   0.0000
  39 H            3.5659     3.5417    -0.4484 H            1    LIG   0.0000
  40 H           -0.7544     0.1249    -3.7826 H            1    LIG   0.0000
  41 H           -1.9697     0.3357    -5.8370 H            1    LIG   0.0000
  42 H           -2.1337     2.4618    -6.9140 H            1    LIG   0.0000
  43 H           -1.0901     4.3824    -5.9511 H            1    LIG   0.0000
  44 H            0.1291     4.1796    -3.8977 H            1    LIG   0.0000
  45 H           -1.4089     0.4386    -0.2966 H            1    LIG   0.0000
  46 H            1.3415     0.0603     1.0208 H            1    LIG   0.0000
  47 H            0.3533     3.2039     2.3900 H            1    LIG   0.0000
  48 H            1.7430     4.5827     3.7733 H            1    LIG   0.0000
  49 H            6.1335     4.6305     5.0571 H            1    LIG   0.0000
  50 H            5.7958     3.0452     4.8586 H            1    LIG   0.0000
  51 H            6.1645     3.9698     3.5640 H            1    LIG   0.0000
  52 H            4.4234     5.9136     5.4865 H            1    LIG   0.0000
  53 H            3.3453     6.0851     4.2720 H            1    LIG   0.0000
  54 H            2.9766     5.1604     5.5665 H            1    LIG   0.0000
  55 H            4.9998     2.1454     2.9614 H            1    LIG   0.0000
  56 H            3.6095     0.7654     1.5797 H            1    LIG   0.0000
  57 H            0.4340    -1.4075     2.3090 H            1    LIG   0.0000
  58 H           -0.5329    -1.4302     3.6248 H            1    LIG   0.0000
  59 H           -1.0547    -2.0723     2.2169 H            1    LIG   0.0000
  60 H           -3.7303     2.8846     0.0672 H            1    LIG   0.0000
  61 H           -5.7382     4.1796     0.2489 H            1    LIG   0.0000
  62 H           -6.7990     4.4453     2.3729 H            1    LIG   0.0000
  63 H           -5.8662     3.4242     4.3202 H            1    LIG   0.0000
  64 H           -3.8570     2.1291     4.1473 H            1    LIG   0.0000
  65 H           -0.2230     3.4242     0.3466 H            1    LIG   0.0000
@<TRIPOS>BOND
   1        1        2 1
   2        2        3 2
   3        3        4 1
   4        4        5 1
   5        5        6 ar
   6        6        7 ar
   7        7        8 ar
   8        8        9 ar
   9        9       10 ar
  10       10        5 ar
  11        4       11 1
  12       11       12 1
  13       11       13 2
  14       13        2 1
  15       13       14 1
  16       14       15 1
  17       15       16 ar
  18       16       17 ar
  19       17       18 ar
  20       18       19 1
  21       19       20 1
  22       19       21 1
  23       18       22 ar
  24       22       23 ar
  25       23       15 ar
  26       14       24 1
  27       24       25 1
  28       25       26 1
  29       25       27 2
  30       27       28 1
  31       28       29 1
  32       29       30 ar
  33       30       31 ar
  34       31       32 ar
  35       32       33 ar
  36       33       34 ar
  37       34       29 ar
  38       28       35 1
  39       35       24 2
  40       35       36 1
  41        1       37 1
  42        1       38 1
  43        1       39 1
  44        6       40 1
  45        7       41 1
  46        8       42 1
  47        9       43 1
  48       10       44 1
  49       12       45 1
  50       14       46 1
  51       16       47 1
  52       17       48 1
  53       20       49 1
  54       20       50 1
  55       20       51 1
  56       21       52 1
  57       21       53 1
  58       21       54 1
  59       22       55 1
  60       23       56 1
  61       26       57 1
  62       26       58 1
  63       26       59 1
  64       30       60 1
  65       31       61 1
  66       32       62 1
  67       33       63 1
  68       34       64 1
  69       36       65 1

@<TRIPOS>MOLECULE

  65   69
SMALL
USER_CHARGES
@<TRIPOS>ATOM
   1 C1           3.4414     2.5496    -0.4341 C.3          1    LIG   0.0000
   2 C2           2.0971     2.1984    -1.0531 C.2          1    LIG   0.0000
   3 N3           1.7045     2.4674    -2.2750 N.2          1    LIG   0.0000
   4 N4           0.4915     2.0206    -2.4848 N.pl3        1    LIG   0.0000
   5 C5          -0.2210     2.1366    -3.6847 C.ar         1    LIG   0.0000
   6 C6          -1.5207     2.6321    -3.6683 C.ar         1    LIG   0.0000
   7 C7          -2.2212     2.7431    -4.8647 C.ar         1    LIG   0.0000
   8 C8          -1.6215     2.3610    -6.0609 C.ar         1    LIG   0.0000
   9 C9          -0.3212     1.8669    -6.0679 C.ar         1    LIG   0.0000
  10 C10          0.3864     1.7519    -4.8755 C.ar         1    LIG   0.0000
  11 C11          0.0357     1.4263    -1.3528 C.2          1    LIG   0.0000
  12 O12         -1.1742     0.8501    -1.1773 O.3          1    LIG   0.0000
  13 C13          1.0316     1.5191    -0.4283 C.2          1    LIG   0.0000
  14 C14          1.0000     1.0000     1.0000 C.3          1    LIG   0.0000
  15 C15          1.8776     1.8776     1.8776 C.ar         1    LIG   0.0000
  16 C16          1.3216     2.9852     2.5104 C.ar         1    LIG   0.0000
  17 C17          2.1296     3.7840     3.3122 C.ar         1    LIG   0.0000
  18 C18          3.4761     3.4721     3.4729 C.ar         1    LIG   0.0000
  19 N19          4.2854     4.2803     4.2806 N.pl3        1    LIG   0.0000
  20 C20          5.7085     3.9555     4.4539 C.3          1    LIG   0.0000
  21 C21          3.7118     5.4536     4.9553 C.3          1    LIG   0.0000
  22 C22          4.0315     2.3643     2.8410 C.ar         1    LIG   0.0000
  23 C23          3.2232     1.5650     2.0396 C.ar         1    LIG   0.0000
  24 C24         -0.4283     1.0316     1.5191 C.2          1    LIG   0.0000
  25 C25         -1.0886     0.0076     2.2279 C.2          1    LIG   0.0000
  26 C26         -0.5111    -1.3411     2.6290 C.3          1    LIG   0.0000
  27 N27         -2.2994     0.4453     2.4770 N.2          1    LIG   0.0000
  28 N28         -2.4684     1.6512     1.9951 N.pl3        1    LIG   0.0000
  29 C29         -3.6420     2.4086     2.0937 C.ar         1    LIG   0.0000
  30 C30         -4.8770     1.7880     1.9374 C.ar         1    LIG   0.0000
  31 C31         -6.0376     2.5482     2.0362 C.ar         1    LIG   0.0000
  32 C32         -5.9557     3.9141     2.2892 C.ar         1    LIG   0.0000
  33 C33         -4.7164     4.5265     2.4445 C.ar         1    LIG   0.0000
  34 C34         -3.5506     3.7735     2.3465 C.ar         1    LIG   0.0000
  35 C35         -1.3231     2.0498     1.3853 C.2          1    LIG   0.0000
  36 O36         -1.1103     3.2320     0.7658 O.3          1    LIG   0.0000
  37 H            3.4684     2.2238     0.5110 H            1    LIG   0.0000
  38 H            4.1735     2.1141    -0.9578 H            1    LIG   0.0000
  39 H            3.5659     3.5417    -0.4484 H            1    LIG   0.0000
  40 H           -1.9466     2.9054    -2.8058 H            1    LIG   0.0000
  41 H           -3.1563     3.0977    -4.8653 H            1    LIG   0.0000
  42 H           -2.1277     2.4421    -6.9195 H            1    LIG   0.0000
  43 H            0.1052     1.5942    -6.9304 H            1    LIG   0.0000
  44 H            1.3212     1.3966    -4.8746 H            1    LIG   0.0000
  45 H           -1.4089     0.4386    -0.2966 H            1    LIG   0.0000
  46 H            1.3415     0.0603     1.0208 H            1    LIG   0.0000
  47 H            0.3533     3.2039     2.3900 H            1    LIG   0.0000
  48 H            1.7430     4.5827     3.7733 H            1    LIG   0.0000
  49 H            6.1335     4.6305     5.0571 H            1    LIG   0.0000
  50 H            5.7958     3.0452     4.8586 H            1    LIG   0.0000
  51 H            6.1645     3.9698     3.5640 H            1    LIG   0.0000
  52 H            4.4234     5.9136     5.4865 H            1    LIG   0.0000
  53 H            3.3453     6.0851     4.2720 H            1    LIG   0.0000
  54 H            2.9766     5.1604     5.5665 H            1    LIG   0.0000
  55 H            4.9998     2.1454     2.9614 H            1    LIG   0.0000
  56 H            3.6095     0.7654     1.5797 H            1    LIG   0.0000
  57 H            0.4340    -1.4075     2.3090 H            1    LIG   0.0000
  58 H           -0.5329    -1.4302     3.6248 H            1    LIG   0.0000
  59 H           -1.0547    -2.0723     2.2169 H            1    LIG   0.0000
  60 H           -4.9299     0.8060     1.7559 H            1    LIG   0.0000
  61 H           -6.9311     2.1131     1.9253 H            1    LIG   0.0000
  62 H           -6.7919     4.4581     2.3598 H            1    LIG   0.0000
  63 H           -4.6634     5.5084     2.6267 H            1    LIG   0.0000
  64 H           -2.6570     4.2086     2.4566 H            1    LIG   0.0000
  65 H           -0.2230     3.4242     0.3466 H            1    LIG   0.0000
@<TRIPOS>BOND
   1        1        2 1
   2        2        3 2
   3        3        4 1
   4        4        5 1
   5        5        6 ar
   6        6        7 ar
   7        7        8 ar
   8        8        9 ar
   9        9       10 ar
  10       10        5 ar
  11        4       11 1
  12       11       12 1
  13       11       13 2
  14       13        2 1
  15       13       14 1
  16       14       15 1
  17       15       16 ar
  18       16       17 ar
  19       17       18 ar
  20       18       19 1
  21       19       20 1
  22       19       21 1
  23       18       22 ar
  24       22       23 ar
  25       23       15 ar
  26       14       24 1
  27       24       25 1
  28       25       26 1
  29       25       27 2
  30       27       28 1
  31       28       29 1
  32       29       30 ar
  33       30       31 ar
  34       31       32 ar
  35       32       33 ar
  36       33       34 ar
  37       34       29 ar
  38       28       35 1
  39       35       24 2
  40       35       36 1
  41        1       37 1
  42        1       38 1
  43        1       39 1
  44        6       40 1
  45        7       41 1
  46        8       42 1
  47        9       43 1
  48       10       44 1
  49       12       45 1
  50       14       46 1
  51       16       47 1
  52       17       48 1
  53       20       49 1
  54       20       50 1
  55       20       51 1
  56       21       52 1
  57       21       53 1
  58       21       54 1
  59       22       55 1
  60       23       56 1
  61       26       57 1
  62       26       58 1
  63       26       59 1
  64       30       60 1
  65       31       61 1
  66       32       62 1
  67       33       63 1
  68       34       64 1
  69       36       65 1

@<TRIPOS>MOLECULE

  65   69
SMALL
USER_CHARGES
@<TRIPOS>ATOM
   1 C1           3.4414     2.5496    -0.4341 C.3          1    LIG   0.0000
   2 C2           2.0971     2.1984    -1.0531 C.2          1    LIG   0.0000
   3 N3           1.7045     2.4674    -2.2750 N.2          1    LIG   0.0000
   4 N4           0.4915     2.0206    -2.4848 N.pl3        1    LIG   0.0000
   5 C5          -0.2210     2.1366    -3.6847 C.ar         1    LIG   0.0000
   6 C6          -1.5207     2.6321    -3.6683 C.ar         1    LIG   0.0000
   7 C7          -2.2212     2.7431    -4.8647 C.ar         1    LIG   0.0000
   8 C8          -1.6215     2.3610    -6.0609 C.ar         1    LIG   0.0000
   9 C9          -0.3212     1.8669    -6.0679 C.ar         1    LIG   0.0000
  10 C10          0.3864     1.7519    -4.8755 C.ar         1    LIG   0.0000
  11 C11          0.0357     1.4263    -1.3528 C.2          1    LIG   0.0000
  12 O12         -1.1742     0.8501    -1.1773 O.3          1    LIG   0.0000
  13 C13          1.0316     1.5191    -0.4283 C.2          1    LIG   0.0000
  14 C14          1.0000     1.0000     1.0000 C.3          1    LIG   0.0000
  15 C15          1.8776     1.8776     1.8776 C.ar         1    LIG   0.0000
  16 C16          1.3216     2.9852     2.5104 C.ar         1    LIG   0.0000
  17 C17          2.1296     3.7840     3.3122 C.ar         1    LIG   0.0000
  18 C18          3.4761     3.4721     3.4729 C.ar         1    LIG   0.0000
  19 N19          4.2854     4.2803     4.2806 N.pl3        1    LIG   0.0000
  20 C20          5.7085     3.9555     4.4539 C.3          1    LIG   0.0000
  21 C21          3.7118     5.4536     4.9553 C.3          1    LIG   0.0000
  22 C22          4.0315     2.3643     2.8410 C.ar         1    LIG   0.0000
  23 C23          3.2232     1.5650     2.0396 C.ar         1    LIG   0.0000
  24 C24         -0.4283     1.0316     1.5191 C.2          1    LIG   0.0000
  25 C25         -1.0886     0.0076     2.2279 C.2          1    LIG   0.0000
  26 C26         -0.5111    -1.3411     2.6290 C.3          1    LIG   0.0000
  27 N27         -2.2994     0.4453     2.4770 N.2          1    LIG   0.0000
  28 N28         -2.4684     1.6512     1.9951 N.pl3        1    LIG   0.0000
  29 C29         -3.6420     2.4086     2.0937 C.ar         1    LIG   0.0000
  30 C30         -3.5779     3.7210     2.5503 C.ar         1    LIG   0.0000
  31 C31         -4.7487     4.4658     2.6457 C.ar         1    LIG   0.0000
  32 C32         -5.9669     3.8972     2.2862 C.ar         1    LIG   0.0000
  33 C33         -6.0216     2.5841     1.8304 C.ar         1    LIG   0.0000
  34 C34         -4.8553     1.8319     1.7326 C.ar         1    LIG   0.0000
  35 C35         -1.3231     2.0498     1.3853 C.2          1    LIG   0.0000
  36 O36         -1.1103     3.2320     0.7658 O.3          1    LIG   0.0000
  37 H            3.4684     2.2238     0.5110 H            1    LIG   0.0000
  38 H            4.1735     2.1141    -0.9578 H            1    LIG   0.0000
  39 H            3.5659     3.5417    -0.4484 H            1    LIG   0.0000
  40 H           -1.9466     2.9054    -2.8058 H            1    LIG   0.0000
  41 H           -3.1563     3.0977    -4.8653 H            1    LIG   0.0000
  42 H           -2.1277     2.4421    -6.9195 H            1    LIG   0.0000
  43 H            0.1052     1.5942    -6.9304 H            1    LIG   0.0000
  44 H            1.3212     1.3966    -4.8746 H            1    LIG   0.0000
  45 H           -1.4089     0.4386    -0.2966 H            1    LIG   0.0000
  46 H            1.3415     0.0603     1.0208 H            1    LIG   0.0000
  47 H            0.3533     3.2039     2.3900 H            1    LIG   0.0000
  48 H            1.7430     4.5827     3.7733 H            1    LIG   0.0000
  49 H            6.1335     4.6305     5.0571 H            1    LIG   0.0000
  50 H            5.7958     3.0452     4.8586 H            1    LIG   0.0000
  51 H            6.1645     3.9698     3.5640 H            1    LIG   0.0000
  52 H            4.4234     5.9136     5.4865 H            1    LIG   0.0000
  53 H            3.3453     6.0851     4.2720 H            1    LIG   0.0000
  54 H            2.9766     5.1604     5.5665 H            1    LIG   0.0000
  55 H            4.9998     2.1454     2.9614 H            1    LIG   0.0000
  56 H            3.6095     0.7654     1.5797 H            1    LIG   0.0000
  57 H            0.4340    -1.4075     2.3090 H            1    LIG   0.0000
  58 H           -0.5329    -1.4302     3.6248 H            1    LIG   0.0000
  59 H           -1.0547    -2.0723     2.2169 H            1    LIG   0.0000
  60 H           -2.6997     4.1246     2.8071 H            1    LIG   0.0000
  61 H           -4.7151     5.4102     2.9728 H            1    LIG   0.0000
  62 H           -6.8070     4.4351     2.3559 H            1    LIG   0.0000
  63 H           -6.8996     2.1806     1.5730 H            1    LIG   0.0000
  64 H           -4.8888     0.8873     1.4062 H            1    LIG   0.0000
  65 H           -0.2230     3.4242     0.3466 H            1    LIG   0.0000
@<TRIPOS>BOND
   1        1        2 1
   2        2        3 2
   3        3        4 1
   4        4        5 1
   5        5        6 ar
   6        6        7 ar
   7        7        8 ar
   8        8        9 ar
   9        9       10 ar
  10       10        5 ar
  11        4       11 1
  12       11       12 1
  13       11       13 2
  14       13        2 1
  15       13       14 1
  16       14       15 1
  17       15       16 ar
  18       16       17 ar
  19       17       18 ar
  20       18       19 1
  21       19       20 1
  22       19       21 1
  23       18       22 ar
  24       22       23 ar
  25       23       15 ar
  26       14       24 1
  27       24       25 1
  28       25       26 1
  29       25       27 2
  30       27       28 1
  31       28       29 1
  32       29       30 ar
  33       30       31 ar
  34       31       32 ar
  35       32       33 ar
  36       33       34 ar
  37       34       29 ar
  38       28       35 1
  39       35       24 2
  40       35       36 1
  41        1       37 1
  42        1       38 1
  43        1       39 1
  44        6       40 1
  45        7       41 1
  46        8       42 1
  47        9       43 1
  48       10       44 1
  49       12       45 1
  50       14       46 1
  51       16       47 1
  52       17       48 1
  53       20       49 1
  54       20       50 1
  55       20       51 1
  56       21       52 1
  57       21       53 1
  58       21       54 1
  59       22       55 1
  60       23       56 1
  61       26       57 1
  62       26       58 1
  63       26       59 1
  64       30       60 1
  65       31       61 1
  66       32       62 1
  67       33       63 1
  68       34       64 1
  69       36       65 1

@<TRIPOS>MOLECULE

  65   69
SMALL
USER_CHARGES
@<TRIPOS>ATOM
   1 C1           3.4414     2.5496    -0.4341 C.3          1    LIG   0.0000
   2 C2           2.0971     2.1984    -1.0531 C.2          1    LIG   0.0000
   3 N3           1.7045     2.4674    -2.2750 N.2          1    LIG   0.0000
   4 N4           0.4915     2.0206    -2.4848 N.pl3        1    LIG   0.0000
   5 C5          -0.2210     2.1366    -3.6847 C.ar         1    LIG   0.0000
   6 C6          -1.5207     2.6321    -3.6683 C.ar         1    LIG   0.0000
   7 C7          -2.2212     2.7431    -4.8647 C.ar         1    LIG   0.0000
   8 C8          -1.6215     2.3610    -6.0609 C.ar         1    LIG   0.0000
   9 C9          -0.3212     1.8669    -6.0679 C.ar         1    LIG   0.0000
  10 C10          0.3864     1.7519    -4.8755 C.ar         1    LIG   0.0000
  11 C11          0.0357     1.4263    -1.3528 C.2          1    LIG   0.0000
  12 O12         -1.1742     0.8501    -1.1773 O.3          1    LIG   0.0000
  13 C13          1.0316     1.5191    -0.4283 C.2          1    LIG   0.0000
  14 C14          1.0000     1.0000     1.0000 C.3          1    LIG   0.0000
  15 C15          1.8776     1.8776     1.8776 C.ar         1    LIG   0.0000
  16 C16          1.3216     2.9852     2.5104 C.ar         1    LIG   0.0000
  17 C17          2.1296     3.7840     3.3122 C.ar         1    LIG   0.0000
  18 C18          3.4761     3.4721     3.4729 C.ar         1    LIG   0.0000
  19 N19          4.2854     4.2803     4.2806 N.pl3        1    LIG   0.0000
  20 C20          5.7085     3.9555     4.4539 C.3          1    LIG   0.0000
  21 C21          3.7118     5.4536     4.9553 C.3          1    LIG   0.0000
  22 C22          4.0315     2.3643     2.8410 C.ar         1    LIG   0.0000
  23 C23          3.2232     1.5650     2.0396 C.ar         1    LIG   0.0000
  24 C24         -0.4283     1.0316     1.5191 C.2          1    LIG   0.0000
  25 C25         -1.0886     0.0076     2.2279 C.2          1    LIG   0.0000
  26 C26         -0.5111    -1.3411     2.6290 C.3          1    LIG   0.0000
  27 N27         -2.2994     0.4453     2.4770 N.2          1    LIG   0.0000
  28 N28         -2.4684     1.6512     1.9951 N.pl3        1    LIG   0.0000
  29 C29         -3.6420     2.4086     2.0937 C.ar         1    LIG   0.0000
  30 C30         -4.1780     2.9990     0.9540 C.ar         1    LIG   0.0000
  31 C31         -5.3437     3.7503     1.0613 C.ar         1    LIG   0.0000
  32 C32         -5.9611     3.9046     2.2989 C.ar         1    LIG   0.0000
  33 C33         -5.4182     3.3104     3.4334 C.ar         1    LIG   0.0000
  34 C34         -4.2521     2.5579     3.3349 C.ar         1    LIG   0.0000
  35 C35         -1.3231     2.0498     1.3853 C.2          1    LIG   0.0000
  36 O36         -1.1103     3.2320     0.7658 O.3          1    LIG   0.0000
  37 H            3.4684     2.2238     0.5110 H            1    LIG   0.0000
  38 H            4.1735     2.1141    -0.9578 H            1    LIG   0.0000
  39 H            3.5659     3.5417    -0.4484 H            1    LIG   0.0000
  40 H           -1.9466     2.9054    -2.8058 H            1    LIG   0.0000
  41 H           -3.1563     3.0977    -4.8653 H            1    LIG   0.0000
  42 H           -2.1277     2.4421    -6.9195 H            1    LIG   0.0000
  43 H            0.1052     1.5942    -6.9304 H            1    LIG   0.0000
  44 H            1.3212     1.3966    -4.8746 H            1    LIG   0.0000
  45 H           -1.4089     0.4386    -0.2966 H            1    LIG   0.0000
  46 H            1.3415     0.0603     1.0208 H            1    LIG   0.0000
  47 H            0.3533     3.2039     2.3900 H            1    LIG   0.0000
  48 H            1.7430     4.5827     3.7733 H            1    LIG   0.0000
  49 H            6.1335     4.6305     5.0571 H            1    LIG   0.0000
  50 H            5.7958     3.0452     4.8586 H            1    LIG   0.0000
  51 H            6.1645     3.9698     3.5640 H            1    LIG   0.0000
  52 H            4.4234     5.9136     5.4865 H            1    LIG   0.0000
  53 H            3.3453     6.0851     4.2720 H            1    LIG   0.0000
  54 H            2.9766     5.1604     5.5665 H            1    LIG   0.0000
  55 H            4.9998     2.1454     2.9614 H            1    LIG   0.0000
  56 H            3.6095     0.7654     1.5797 H            1    LIG   0.0000
  57 H            0.4340    -1.4075     2.3090 H            1    LIG   0.0000
  58 H           -0.5329    -1.4302     3.6248 H            1    LIG   0.0000
  59 H           -1.0547    -2.0723     2.2169 H            1    LIG   0.0000
  60 H           -3.7303     2.8846     0.0672 H            1    LIG   0.0000
  61 H           -5.7382     4.1796     0.2489 H            1    LIG   0.0000
  62 H           -6.7990     4.4453     2.3729 H            1    LIG   0.0000
  63 H           -5.8662     3.4242     4.3202 H            1    LIG   0.0000
  64 H           -3.8570     2.1291     4.1473 H            1    LIG   0.0000
  65 H           -0.2230     3.4242     0.3466 H            1    LIG   0.0000
@<TRIPOS>BOND
   1        1        2 1
   2        2        3 2
   3        3        4 1
   4        4        5 1
   5        5        6 ar
   6        6        7 ar
   7        7        8 ar
   8        8        9 ar
   9        9       10 ar
  10       10        5 ar
  11        4       11 1
  12       11       12 1
  13       11       13 2
  14       13        2 1
  15       13       14 1
  16       14       15 1
  17       15       16 ar
  18       16       17 ar
  19       17       18 ar
  20       18       19 1
  21       19       20 1
  22       19       21 1
  23       18       22 ar
  24       22       23 ar
  25       23       15 ar
  26       14       24 1
  27       24       25 1
  28       25       26 1
  29       25       27 2
  30       27       28 1
  31       28       29 1
  32       29       30 ar
  33       30       31 ar
  34       31       32 ar
  35       32       33 ar
  36       33       34 ar
  37       34       29 ar
  38       28       35 1
  39       35       24 2
  40       35       36 1
  41        1       37 1
  42        1       38 1
  43        1       39 1
  44        6       40 1
  45        7       41 1
  46        8       42 1
  47        9       43 1
  48       10       44 1
  49       12       45 1
  50       14       46 1
  51       16       47 1
  52       17       48 1
  53       20       49 1
  54       20       50 1
  55       20       51 1
  56       21       52 1
  57       21       53 1
  58       21       54 1
  59       22       55 1
  60       23       56 1
  61       26       57 1
  62       26       58 1
  63       26       59 1
  64       30       60 1
  65       31       61 1
  66       32       62 1
  67       33       63 1
  68       34       64 1
  69       36       65 1

@<TRIPOS>MOLECULE

  65   69
SMALL
USER_CHARGES
@<TRIPOS>ATOM
   1 C1           3.4414     2.5496    -0.4341 C.3          1    LIG   0.0000
   2 C2           2.0971     2.1984    -1.0531 C.2          1    LIG   0.0000
   3 N3           1.7045     2.4674    -2.2750 N.2          1    LIG   0.0000
   4 N4           0.4915     2.0206    -2.4848 N.pl3        1    LIG   0.0000
   5 C5          -0.2210     2.1366    -3.6847 C.ar         1    LIG   0.0000
   6 C6          -1.5078     1.6160    -3.7742 C.ar         1    LIG   0.0000
   7 C7          -2.2079     1.7350    -4.9701 C.ar         1    LIG   0.0000
   8 C8          -1.6207     2.3697    -6.0605 C.ar         1    LIG   0.0000
   9 C9          -0.3335     2.8877    -5.9619 C.ar         1    LIG   0.0000
  10 C10          0.3740     2.7723    -4.7696 C.ar         1    LIG   0.0000
  11 C11          0.0357     1.4263    -1.3528 C.2          1    LIG   0.0000
  12 O12         -1.1742     0.8501    -1.1773 O.3          1    LIG   0.0000
  13 C13          1.0316     1.5191    -0.4283 C.2          1    LIG   0.0000
  14 C14          1.0000     1.0000     1.0000 C.3          1    LIG   0.0000
  15 C15          1.8776     1.8776     1.8776 C.ar         1    LIG   0.0000
  16 C16          1.3216     2.9852     2.5104 C.ar         1    LIG   0.0000
  17 C17          2.1296     3.7840     3.3122 C.ar         1    LIG   0.0000
  18 C18          3.4761     3.4721     3.4729 C.ar         1    LIG   0.0000
  19 N19          4.2854     4.2803     4.2806 N.pl3        1    LIG   0.0000
  20 C20          5.7085     3.9555     4.4539 C.3          1    LIG   0.0000
  21 C21          3.7118     5.4536     4.9553 C.3          1    LIG   0.0000
  22 C22          4.0315     2.3643     2.8410 C.ar         1    LIG   0.0000
  23 C23          3.2232     1.5650     2.0396 C.ar         1    LIG   0.0000
  24 C24         -0.4283     1.0316     1.5191 C.2          1    LIG   0.0000
  25 C25         -1.0886     0.0076     2.2279 C.2          1    LIG   0.0000
  26 C26         -0.5111    -1.3411     2.6290 C.3          1    LIG   0.0000
  27 N27         -2.2994     0.4453     2.4770 N.2          1    LIG   0.0000
  28 N28         -2.4684     1.6512     1.9951 N.pl3        1    LIG   0.0000
  29 C29         -3.6420     2.4086     2.0937 C.ar         1    LIG   0.0000
  30 C30         -4.3735     2.3938     3.2768 C.ar         1    LIG   0.0000
  31 C31         -5.5384     3.1486     3.3657 C.ar         1    LIG   0.0000
  32 C32         -5.9606     3.9079     2.2786 C.ar         1    LIG   0.0000
  33 C33         -5.2228     3.9170     1.0994 C.ar         1    LIG   0.0000
  34 C34         -4.0567     3.1644     1.0020 C.ar         1    LIG   0.0000
  35 C35         -1.3231     2.0498     1.3853 C.2          1    LIG   0.0000
  36 O36         -1.1103     3.2320     0.7658 O.3          1    LIG   0.0000
  37 H            3.4684     2.2238     0.5110 H            1    LIG   0.0000
  38 H            4.1735     2.1141    -0.9578 H            1    LIG   0.0000
  39 H            3.5659     3.5417    -0.4484 H            1    LIG   0.0000
  40 H           -1.9249     1.1611    -2.9873 H            1    LIG   0.0000
  41 H           -3.1335     1.3644    -5.0464 H            1    LIG   0.0000
  42 H           -2.1266     2.4538    -6.9190 H            1    LIG   0.0000
  43 H            0.0835     3.3433    -6.7485 H            1    LIG   0.0000
  44 H            1.3000     3.1422    -4.6933 H            1    LIG   0.0000
  45 H           -1.4089     0.4386    -0.2966 H            1    LIG   0.0000
  46 H            1.3415     0.0603     1.0208 H            1    LIG   0.0000
  47 H            0.3533     3.2039     2.3900 H            1    LIG   0.0000
  48 H            1.7430     4.5827     3.7733 H            1    LIG   0.0000
  49 H            6.1335     4.6305     5.0571 H            1    LIG   0.0000
  50 H            5.7958     3.0452     4.8586 H            1    LIG   0.0000
  51 H            6.1645     3.9698     3.5640 H            1    LIG   0.0000
  52 H            4.4234     5.9136     5.4865 H            1    LIG   0.0000
  53 H            3.3453     6.0851     4.2720 H            1    LIG   0.0000
  54 H            2.9766     5.1604     5.5665 H            1    LIG   0.0000
  55 H            4.9998     2.1454     2.9614 H            1    LIG   0.0000
  56 H            3.6095     0.7654     1.5797 H            1    LIG   0.0000
  57 H            0.4340    -1.4075     2.3090 H            1    LIG   0.0000
  58 H           -0.5329    -1.4302     3.6248 H            1    LIG   0.0000
  59 H           -1.0547    -2.0723     2.2169 H            1    LIG   0.0000
  60 H           -4.0652     1.8465     4.0549 H            1    LIG   0.0000
  61 H           -6.0726     3.1456     4.2110 H            1    LIG   0.0000
  62 H           -6.7986     4.4496     2.3455 H            1    LIG   0.0000
  63 H           -5.5306     4.4648     0.3215 H            1    LIG   0.0000
  64 H           -3.5227     3.1666     0.1565 H            1    LIG   0.0000
  65 H           -0.2230     3.4242     0.3466 H            1    LIG   0.0000
@<TRIPOS>BOND
   1        1        2 1
   2        2        3 2
   3        3        4 1
   4        4        5 1
   5        5        6 ar
   6        6        7 ar
   7        7        8 ar
   8        8        9 ar
   9        9       10 ar
  10       10        5 ar
  11        4       11 1
  12       11       12 1
  13       11       13 2
  14       13        2 1
  15       13       14 1
  16       14       15 1
  17       15       16 ar
  18       16       17 ar
  19       17       18 ar
  20       18       19 1
  21       19       20 1
  22       19       21 1
  23       18       22 ar
  24       22       23 ar
  25       23       15 ar
  26       14       24 1
  27       24       25 1
  28       25       26 1
  29       25       27 2
  30       27       28 1
  31       28       29 1
  32       29       30 ar
  33       30       31 ar
  34       31       32 ar
  35       32       33 ar
  36       33       34 ar
  37       34       29 ar
  38       28       35 1
  39       35       24 2
  40       35       36 1
  41        1       37 1
  42        1       38 1
  43        1       39 1
  44        6       40 1
  45        7       41 1
  46        8       42 1
  47        9       43 1
  48       10       44 1
  49       12       45 1
  50       14       46 1
  51       16       47 1
  52       17       48 1
  53       20       49 1
  54       20       50 1
  55       20       51 1
  56       21       52 1
  57       21       53 1
  58       21       54 1
  59       22       55 1
  60       23       56 1
  61       26       57 1
  62       26       58 1
  63       26       59 1
  64       30       60 1
  65       31       61 1
  66       32       62 1
  67       33       63 1
  68       34       64 1
  69       36       65 1

