@<TRIPOS>MOLECULE
*****
 23 24 0 0 0
SMALL
USER_CHARGES

@<TRIPOS>ATOM
      1 O1          1.0931    3.4470    0.0080 O.3     1  LIG1        0.0000
      2 C2          1.1618    2.0974    0.0012 C.ar    1  LIG1        0.0000
      3 C3         -0.0224    1.3705    0.0101 C.ar    1  LIG1        0.0000
      4 Br4        -1.7272    2.3349    0.0310 Br      1  LIG1        0.0000
      5 C5         -0.0290   -0.0189    0.0048 C.ar    1  LIG1        0.0000
      6 C6          1.1950   -0.6781   -0.0099 C.ar    1  LIG1        0.0000
      7 C7          2.4032    0.0141   -0.0197 C.ar    1  LIG1        0.0000
      8 C8          3.6226   -0.6604   -0.0346 C.ar    1  LIG1        0.0000
      9 O9          3.6920   -2.0099   -0.0409 O.3     1  LIG1        0.0000
     10 C10         3.7361   -2.6257    1.2378 C.3     1  LIG1        0.0000
     11 F11         2.4965   -2.8349    1.6722 F       1  LIG1        0.0000
     12 F12         4.3765   -3.7879    1.1483 F       1  LIG1        0.0000
     13 F13         4.3765   -1.8312    2.0907 F       1  LIG1        0.0000
     14 C14         4.8242    0.0401   -0.0436 C.ar    1  LIG1        0.0000
     15 C15         4.8032    1.4311   -0.0374 C.ar    1  LIG1        0.0000
     16 C16         3.5813    2.0962   -0.0235 C.ar    1  LIG1        0.0000
     17 C17         2.3715    1.4071   -0.0143 C.ar    1  LIG1        0.0000
     18 H           1.9325    3.9904    0.0018 H       1  LIG1        0.0000
     19 H          -0.8887   -0.5296    0.0115 H       1  LIG1        0.0000
     20 H           1.2081   -1.6781   -0.0135 H       1  LIG1        0.0000
     21 H           5.6950   -0.4515   -0.0545 H       1  LIG1        0.0000
     22 H           5.6589    1.9484   -0.0429 H       1  LIG1        0.0000
     23 H           3.5717    3.0961   -0.0201 H       1  LIG1        0.0000
@<TRIPOS>BOND
     1     1     2    1
     2     2     3   ar
     3     3     4    1
     4     3     5   ar
     5     5     6   ar
     6     6     7   ar
     7     7     8   ar
     8     8     9    1
     9     9    10    1
    10    10    11    1
    11    10    12    1
    12    10    13    1
    13     8    14   ar
    14    14    15   ar
    15    15    16   ar
    16    16    17   ar
    17    17     2   ar
    18    17     7   ar
    19     1    18    1
    20     5    19    1
    21     6    20    1
    22    14    21    1
    23    15    22    1
    24    16    23    1
