@<TRIPOS>MOLECULE

  70   74
SMALL
USER_CHARGES
@<TRIPOS>ATOM
   1 C1           2.3449     2.3449     5.5531 C.3          1    LIG   0.0000
   2 C2           2.6374     2.6374     4.0905 C.3          1    LIG   0.0000
   3 C3           4.1000     2.3449     3.7980 C.3          1    LIG   0.0000
   4 C4           1.7598     1.7598     3.2129 C.2          1    LIG   0.0000
   5 O5           0.9891     0.9891     3.7150 O.2          1    LIG   0.0000
   6 N6           1.8487     1.8487     1.8487 N.am         1    LIG   0.0000
   7 C7           1.0000     1.0000     1.0000 C.3          1    LIG   0.0000
   8 C8           0.1224     1.8776     0.1224 C.3          1    LIG   0.0000
   9 C9          -0.7546     1.0005    -0.7546 C.2          1    LIG   0.0000
  10 C10         -0.4152     0.5508    -1.9950 C.2          1    LIG   0.0000
  11 N11         -1.4673    -0.1922    -2.4393 N.pl3        1    LIG   0.0000
  12 C12         -2.4575    -0.2130    -1.5007 C.ar         1    LIG   0.0000
  13 C13         -3.7085    -0.8204    -1.4808 C.ar         1    LIG   0.0000
  14 C14         -4.5555    -0.6930    -0.3849 C.ar         1    LIG   0.0000
  15 C15         -4.1383     0.0569     0.7098 C.ar         1    LIG   0.0000
  16 C16         -2.8840     0.6583     0.6818 C.ar         1    LIG   0.0000
  17 C17         -2.0431     0.5244    -0.4184 C.ar         1    LIG   0.0000
  18 C18          1.8776     0.1224     0.1224 C.2          1    LIG   0.0000
  19 O19          1.5740    -0.0766    -1.0213 O.2          1    LIG   0.0000
  20 N20          3.0395    -0.4533     0.6483 N.am         1    LIG   0.0000
  21 C21          3.9068    -1.3062    -0.1772 C.3          1    LIG   0.0000
  22 C22          5.3299    -1.2428     0.3515 C.3          1    LIG   0.0000
  23 N23          5.2913    -1.6932     1.7493 N.am         1    LIG   0.0000
  24 C24          6.3995    -2.3658     2.2771 C.2          1    LIG   0.0000
  25 O25          7.3624    -2.5669     1.5899 O.2          1    LIG   0.0000
  26 C26          6.3832    -2.8414     3.7206 C.3          1    LIG   0.0000
  27 C27          7.6960    -3.5358     4.0398 C.2          1    LIG   0.0000
  28 C28          8.7386    -2.9648     4.7054 C.2          1    LIG   0.0000
  29 N29          9.7158    -3.9113     4.7802 N.pl3        1    LIG   0.0000
  30 C30          9.3037    -5.0612     4.1721 C.ar         1    LIG   0.0000
  31 C31          9.9272    -6.2903     3.9853 C.ar         1    LIG   0.0000
  32 C32          9.2874    -7.3306     3.3199 C.ar         1    LIG   0.0000
  33 C33          7.9990    -7.1329     2.8344 C.ar         1    LIG   0.0000
  34 C34          7.3824    -5.9010     3.0287 C.ar         1    LIG   0.0000
  35 C35          8.0299    -4.8665     3.6965 C.ar         1    LIG   0.0000
  36 C36          4.0870    -1.4620     2.5597 C.3          1    LIG   0.0000
  37 C37          3.3705    -0.2182     2.0600 C.3          1    LIG   0.0000
  38 H            0.4226     0.4226     1.5774 H            1    LIG   0.0000
  39 H           -1.5079    -0.6552    -3.3247 H            1    LIG   0.0000
  40 H           10.6059    -3.7819     5.2173 H            1    LIG   0.0000
  41 H            2.9222     2.9222     6.1305 H            1    LIG   0.0000
  42 H            1.3826     2.5373     5.7456 H            1    LIG   0.0000
  43 H            2.5373     1.3826     5.7456 H            1    LIG   0.0000
  44 H            2.4449     3.5996     3.8980 H            1    LIG   0.0000
  45 H            4.6774     2.9222     4.3753 H            1    LIG   0.0000
  46 H            4.2925     1.3826     3.9904 H            1    LIG   0.0000
  47 H            4.2925     2.5373     2.8357 H            1    LIG   0.0000
  48 H            2.4909     2.4909     1.4303 H            1    LIG   0.0000
  49 H           -0.4549     2.4549     0.6998 H            1    LIG   0.0000
  50 H            0.6998     2.4549    -0.4549 H            1    LIG   0.0000
  51 H            0.4385     0.7308    -2.4836 H            1    LIG   0.0000
  52 H           -4.0047    -1.3591    -2.2695 H            1    LIG   0.0000
  53 H           -5.4526    -1.1348    -0.3840 H            1    LIG   0.0000
  54 H           -4.7326     0.1626     1.5070 H            1    LIG   0.0000
  55 H           -2.5811     1.1972     1.4678 H            1    LIG   0.0000
  56 H            3.8881    -0.9838    -1.1237 H            1    LIG   0.0000
  57 H            3.5791    -2.2502    -0.1401 H            1    LIG   0.0000
  58 H            5.9226    -1.8427    -0.1860 H            1    LIG   0.0000
  59 H            5.6727    -0.3047     0.3026 H            1    LIG   0.0000
  60 H            5.6267    -3.4821     3.8520 H            1    LIG   0.0000
  61 H            6.2647    -2.0566     4.3289 H            1    LIG   0.0000
  62 H            8.7788    -2.0337     5.0678 H            1    LIG   0.0000
  63 H           10.8533    -6.4287     4.3362 H            1    LIG   0.0000
  64 H            9.7476    -8.2092     3.1922 H            1    LIG   0.0000
  65 H            7.5218    -7.8672     2.3516 H            1    LIG   0.0000
  66 H            6.4558    -5.7564     2.6816 H            1    LIG   0.0000
  67 H            4.3486    -1.3341     3.5163 H            1    LIG   0.0000
  68 H            3.4774    -2.2510     2.4833 H            1    LIG   0.0000
  69 H            2.5350    -0.0672     2.5884 H            1    LIG   0.0000
  70 H            3.9673     0.5797     2.1448 H            1    LIG   0.0000
@<TRIPOS>BOND
   1        1        2 1
   2        2        3 1
   3        2        4 1
   4        4        5 2
   5        4        6 am
   6        6        7 1
   7        7        8 1
   8        8        9 1
   9        9       10 2
  10       10       11 1
  11       11       12 1
  12       12       13 ar
  13       13       14 ar
  14       14       15 ar
  15       15       16 ar
  16       16       17 ar
  17       17        9 1
  18       17       12 ar
  19        7       18 1
  20       18       19 2
  21       18       20 am
  22       20       21 1
  23       21       22 1
  24       22       23 1
  25       23       24 am
  26       24       25 2
  27       24       26 1
  28       26       27 1
  29       27       28 2
  30       28       29 1
  31       29       30 1
  32       30       31 ar
  33       31       32 ar
  34       32       33 ar
  35       33       34 ar
  36       34       35 ar
  37       35       27 1
  38       35       30 ar
  39       23       36 1
  40       36       37 1
  41       37       20 1
  42        7       38 1
  43       11       39 1
  44       29       40 1
  45        1       41 1
  46        1       42 1
  47        1       43 1
  48        2       44 1
  49        3       45 1
  50        3       46 1
  51        3       47 1
  52        6       48 1
  53        8       49 1
  54        8       50 1
  55       10       51 1
  56       13       52 1
  57       14       53 1
  58       15       54 1
  59       16       55 1
  60       21       56 1
  61       21       57 1
  62       22       58 1
  63       22       59 1
  64       26       60 1
  65       26       61 1
  66       28       62 1
  67       31       63 1
  68       32       64 1
  69       33       65 1
  70       34       66 1
  71       36       67 1
  72       36       68 1
  73       37       69 1
  74       37       70 1

@<TRIPOS>MOLECULE

  70   74
SMALL
USER_CHARGES
@<TRIPOS>ATOM
   1 C1           2.3449     2.3449     5.5531 C.3          1    LIG   0.0000
   2 C2           2.6374     2.6374     4.0905 C.3          1    LIG   0.0000
   3 C3           4.1000     2.3449     3.7980 C.3          1    LIG   0.0000
   4 C4           1.7598     1.7598     3.2129 C.2          1    LIG   0.0000
   5 O5           0.9891     0.9891     3.7150 O.2          1    LIG   0.0000
   6 N6           1.8487     1.8487     1.8487 N.am         1    LIG   0.0000
   7 C7           1.0000     1.0000     1.0000 C.3          1    LIG   0.0000
   8 C8           0.1224     1.8776     0.1224 C.3          1    LIG   0.0000
   9 C9          -0.7546     1.0005    -0.7546 C.2          1    LIG   0.0000
  10 C10         -0.4152     0.5508    -1.9950 C.2          1    LIG   0.0000
  11 N11         -1.4673    -0.1922    -2.4393 N.pl3        1    LIG   0.0000
  12 C12         -2.4575    -0.2130    -1.5007 C.ar         1    LIG   0.0000
  13 C13         -3.7085    -0.8204    -1.4808 C.ar         1    LIG   0.0000
  14 C14         -4.5555    -0.6930    -0.3849 C.ar         1    LIG   0.0000
  15 C15         -4.1383     0.0569     0.7098 C.ar         1    LIG   0.0000
  16 C16         -2.8840     0.6583     0.6818 C.ar         1    LIG   0.0000
  17 C17         -2.0431     0.5244    -0.4184 C.ar         1    LIG   0.0000
  18 C18          1.8776     0.1224     0.1224 C.2          1    LIG   0.0000
  19 O19          1.5740    -0.0766    -1.0213 O.2          1    LIG   0.0000
  20 N20          3.0395    -0.4533     0.6483 N.am         1    LIG   0.0000
  21 C21          3.9068    -1.3062    -0.1772 C.3          1    LIG   0.0000
  22 C22          5.3299    -1.2428     0.3515 C.3          1    LIG   0.0000
  23 N23          5.2913    -1.6932     1.7493 N.am         1    LIG   0.0000
  24 C24          6.3995    -2.3658     2.2771 C.2          1    LIG   0.0000
  25 O25          7.3624    -2.5669     1.5899 O.2          1    LIG   0.0000
  26 C26          6.3832    -2.8414     3.7206 C.3          1    LIG   0.0000
  27 C27          7.6960    -3.5358     4.0398 C.2          1    LIG   0.0000
  28 C28          7.8785    -4.8857     4.0640 C.2          1    LIG   0.0000
  29 N29          9.1838    -5.0946     4.3937 N.pl3        1    LIG   0.0000
  30 C30          9.8188    -3.9009     4.5777 C.ar         1    LIG   0.0000
  31 C31         11.1298    -3.5871     4.9200 C.ar         1    LIG   0.0000
  32 C32         11.5457    -2.2662     5.0493 C.ar         1    LIG   0.0000
  33 C33         10.6290    -1.2432     4.8303 C.ar         1    LIG   0.0000
  34 C34          9.3207    -1.5669     4.4854 C.ar         1    LIG   0.0000
  35 C35          8.9140    -2.8912     4.3574 C.ar         1    LIG   0.0000
  36 C36          4.0870    -1.4620     2.5597 C.3          1    LIG   0.0000
  37 C37          3.3705    -0.2182     2.0600 C.3          1    LIG   0.0000
  38 H            0.4226     0.4226     1.5774 H            1    LIG   0.0000
  39 H           -1.5079    -0.6552    -3.3247 H            1    LIG   0.0000
  40 H            9.6142    -5.9924     4.4871 H            1    LIG   0.0000
  41 H            2.9222     2.9222     6.1305 H            1    LIG   0.0000
  42 H            1.3826     2.5373     5.7456 H            1    LIG   0.0000
  43 H            2.5373     1.3826     5.7456 H            1    LIG   0.0000
  44 H            2.4449     3.5996     3.8980 H            1    LIG   0.0000
  45 H            4.6774     2.9222     4.3753 H            1    LIG   0.0000
  46 H            4.2925     1.3826     3.9904 H            1    LIG   0.0000
  47 H            4.2925     2.5373     2.8357 H            1    LIG   0.0000
  48 H            2.4909     2.4909     1.4303 H            1    LIG   0.0000
  49 H           -0.4549     2.4549     0.6998 H            1    LIG   0.0000
  50 H            0.6998     2.4549    -0.4549 H            1    LIG   0.0000
  51 H            0.4385     0.7308    -2.4836 H            1    LIG   0.0000
  52 H           -4.0047    -1.3591    -2.2695 H            1    LIG   0.0000
  53 H           -5.4526    -1.1348    -0.3840 H            1    LIG   0.0000
  54 H           -4.7326     0.1626     1.5070 H            1    LIG   0.0000
  55 H           -2.5811     1.1972     1.4678 H            1    LIG   0.0000
  56 H            3.8881    -0.9838    -1.1237 H            1    LIG   0.0000
  57 H            3.5791    -2.2502    -0.1401 H            1    LIG   0.0000
  58 H            5.9226    -1.8427    -0.1860 H            1    LIG   0.0000
  59 H            5.6727    -0.3047     0.3026 H            1    LIG   0.0000
  60 H            5.6267    -3.4821     3.8520 H            1    LIG   0.0000
  61 H            6.2647    -2.0566     4.3289 H            1    LIG   0.0000
  62 H            7.1895    -5.5858     3.8766 H            1    LIG   0.0000
  63 H           11.7860    -4.3254     5.0762 H            1    LIG   0.0000
  64 H           12.4913    -2.0547     5.2964 H            1    LIG   0.0000
  65 H           10.9070    -0.2868     4.9197 H            1    LIG   0.0000
  66 H            8.6598    -0.8335     4.3264 H            1    LIG   0.0000
  67 H            4.3486    -1.3341     3.5163 H            1    LIG   0.0000
  68 H            3.4774    -2.2510     2.4833 H            1    LIG   0.0000
  69 H            2.5350    -0.0672     2.5884 H            1    LIG   0.0000
  70 H            3.9673     0.5797     2.1448 H            1    LIG   0.0000
@<TRIPOS>BOND
   1        1        2 1
   2        2        3 1
   3        2        4 1
   4        4        5 2
   5        4        6 am
   6        6        7 1
   7        7        8 1
   8        8        9 1
   9        9       10 2
  10       10       11 1
  11       11       12 1
  12       12       13 ar
  13       13       14 ar
  14       14       15 ar
  15       15       16 ar
  16       16       17 ar
  17       17        9 1
  18       17       12 ar
  19        7       18 1
  20       18       19 2
  21       18       20 am
  22       20       21 1
  23       21       22 1
  24       22       23 1
  25       23       24 am
  26       24       25 2
  27       24       26 1
  28       26       27 1
  29       27       28 2
  30       28       29 1
  31       29       30 1
  32       30       31 ar
  33       31       32 ar
  34       32       33 ar
  35       33       34 ar
  36       34       35 ar
  37       35       27 1
  38       35       30 ar
  39       23       36 1
  40       36       37 1
  41       37       20 1
  42        7       38 1
  43       11       39 1
  44       29       40 1
  45        1       41 1
  46        1       42 1
  47        1       43 1
  48        2       44 1
  49        3       45 1
  50        3       46 1
  51        3       47 1
  52        6       48 1
  53        8       49 1
  54        8       50 1
  55       10       51 1
  56       13       52 1
  57       14       53 1
  58       15       54 1
  59       16       55 1
  60       21       56 1
  61       21       57 1
  62       22       58 1
  63       22       59 1
  64       26       60 1
  65       26       61 1
  66       28       62 1
  67       31       63 1
  68       32       64 1
  69       33       65 1
  70       34       66 1
  71       36       67 1
  72       36       68 1
  73       37       69 1
  74       37       70 1

@<TRIPOS>MOLECULE

  70   74
SMALL
USER_CHARGES
@<TRIPOS>ATOM
   1 C1           2.3449     2.3449     5.5531 C.3          1    LIG   0.0000
   2 C2           2.6374     2.6374     4.0905 C.3          1    LIG   0.0000
   3 C3           4.1000     2.3449     3.7980 C.3          1    LIG   0.0000
   4 C4           1.7598     1.7598     3.2129 C.2          1    LIG   0.0000
   5 O5           0.9891     0.9891     3.7150 O.2          1    LIG   0.0000
   6 N6           1.8487     1.8487     1.8487 N.am         1    LIG   0.0000
   7 C7           1.0000     1.0000     1.0000 C.3          1    LIG   0.0000
   8 C8           0.1224     1.8776     0.1224 C.3          1    LIG   0.0000
   9 C9          -0.7546     1.0005    -0.7546 C.2          1    LIG   0.0000
  10 C10         -0.4152     0.5508    -1.9950 C.2          1    LIG   0.0000
  11 N11         -1.4673    -0.1922    -2.4393 N.pl3        1    LIG   0.0000
  12 C12         -2.4575    -0.2130    -1.5007 C.ar         1    LIG   0.0000
  13 C13         -3.7085    -0.8204    -1.4808 C.ar         1    LIG   0.0000
  14 C14         -4.5555    -0.6930    -0.3849 C.ar         1    LIG   0.0000
  15 C15         -4.1383     0.0569     0.7098 C.ar         1    LIG   0.0000
  16 C16         -2.8840     0.6583     0.6818 C.ar         1    LIG   0.0000
  17 C17         -2.0431     0.5244    -0.4184 C.ar         1    LIG   0.0000
  18 C18          1.8776     0.1224     0.1224 C.2          1    LIG   0.0000
  19 O19          1.5740    -0.0766    -1.0213 O.2          1    LIG   0.0000
  20 N20          3.0395    -0.4533     0.6483 N.am         1    LIG   0.0000
  21 C21          3.9068    -1.3062    -0.1772 C.3          1    LIG   0.0000
  22 C22          5.3299    -1.2428     0.3515 C.3          1    LIG   0.0000
  23 N23          5.2913    -1.6932     1.7493 N.am         1    LIG   0.0000
  24 C24          6.3995    -2.3658     2.2771 C.2          1    LIG   0.0000
  25 O25          7.3624    -2.5669     1.5899 O.2          1    LIG   0.0000
  26 C26          6.3832    -2.8414     3.7206 C.3          1    LIG   0.0000
  27 C27          6.0555    -4.3242     3.7615 C.2          1    LIG   0.0000
  28 C28          4.8282    -4.8442     4.0433 C.2          1    LIG   0.0000
  29 N29          4.9579    -6.1991     3.9821 N.pl3        1    LIG   0.0000
  30 C30          6.2431    -6.5344     3.6696 C.ar         1    LIG   0.0000
  31 C31          6.8679    -7.7648     3.4954 C.ar         1    LIG   0.0000
  32 C32          8.2180    -7.8495     3.1721 C.ar         1    LIG   0.0000
  33 C33          8.9527    -6.6781     3.0206 C.ar         1    LIG   0.0000
  34 C34          8.3184    -5.4522     3.1939 C.ar         1    LIG   0.0000
  35 C35          6.9671    -5.3773     3.5162 C.ar         1    LIG   0.0000
  36 C36          4.0870    -1.4620     2.5597 C.3          1    LIG   0.0000
  37 C37          3.3705    -0.2182     2.0600 C.3          1    LIG   0.0000
  38 H            0.4226     0.4226     1.5774 H            1    LIG   0.0000
  39 H           -1.5079    -0.6552    -3.3247 H            1    LIG   0.0000
  40 H            4.2185    -6.8529     4.1427 H            1    LIG   0.0000
  41 H            2.9222     2.9222     6.1305 H            1    LIG   0.0000
  42 H            1.3826     2.5373     5.7456 H            1    LIG   0.0000
  43 H            2.5373     1.3826     5.7456 H            1    LIG   0.0000
  44 H            2.4449     3.5996     3.8980 H            1    LIG   0.0000
  45 H            4.6774     2.9222     4.3753 H            1    LIG   0.0000
  46 H            4.2925     1.3826     3.9904 H            1    LIG   0.0000
  47 H            4.2925     2.5373     2.8357 H            1    LIG   0.0000
  48 H            2.4909     2.4909     1.4303 H            1    LIG   0.0000
  49 H           -0.4549     2.4549     0.6998 H            1    LIG   0.0000
  50 H            0.6998     2.4549    -0.4549 H            1    LIG   0.0000
  51 H            0.4385     0.7308    -2.4836 H            1    LIG   0.0000
  52 H           -4.0047    -1.3591    -2.2695 H            1    LIG   0.0000
  53 H           -5.4526    -1.1348    -0.3840 H            1    LIG   0.0000
  54 H           -4.7326     0.1626     1.5070 H            1    LIG   0.0000
  55 H           -2.5811     1.1972     1.4678 H            1    LIG   0.0000
  56 H            3.8881    -0.9838    -1.1237 H            1    LIG   0.0000
  57 H            3.5791    -2.2502    -0.1401 H            1    LIG   0.0000
  58 H            5.9226    -1.8427    -0.1860 H            1    LIG   0.0000
  59 H            5.6727    -0.3047     0.3026 H            1    LIG   0.0000
  60 H            5.6901    -2.3327     4.2314 H            1    LIG   0.0000
  61 H            7.2812    -2.6870     4.1326 H            1    LIG   0.0000
  62 H            3.9956    -4.3319     4.2537 H            1    LIG   0.0000
  63 H            6.3362    -8.6046     3.6047 H            1    LIG   0.0000
  64 H            8.6547    -8.7407     3.0501 H            1    LIG   0.0000
  65 H            9.9250    -6.7168     2.7900 H            1    LIG   0.0000
  66 H            8.8439    -4.6084     3.0847 H            1    LIG   0.0000
  67 H            4.3486    -1.3341     3.5163 H            1    LIG   0.0000
  68 H            3.4774    -2.2510     2.4833 H            1    LIG   0.0000
  69 H            2.5350    -0.0672     2.5884 H            1    LIG   0.0000
  70 H            3.9673     0.5797     2.1448 H            1    LIG   0.0000
@<TRIPOS>BOND
   1        1        2 1
   2        2        3 1
   3        2        4 1
   4        4        5 2
   5        4        6 am
   6        6        7 1
   7        7        8 1
   8        8        9 1
   9        9       10 2
  10       10       11 1
  11       11       12 1
  12       12       13 ar
  13       13       14 ar
  14       14       15 ar
  15       15       16 ar
  16       16       17 ar
  17       17        9 1
  18       17       12 ar
  19        7       18 1
  20       18       19 2
  21       18       20 am
  22       20       21 1
  23       21       22 1
  24       22       23 1
  25       23       24 am
  26       24       25 2
  27       24       26 1
  28       26       27 1
  29       27       28 2
  30       28       29 1
  31       29       30 1
  32       30       31 ar
  33       31       32 ar
  34       32       33 ar
  35       33       34 ar
  36       34       35 ar
  37       35       27 1
  38       35       30 ar
  39       23       36 1
  40       36       37 1
  41       37       20 1
  42        7       38 1
  43       11       39 1
  44       29       40 1
  45        1       41 1
  46        1       42 1
  47        1       43 1
  48        2       44 1
  49        3       45 1
  50        3       46 1
  51        3       47 1
  52        6       48 1
  53        8       49 1
  54        8       50 1
  55       10       51 1
  56       13       52 1
  57       14       53 1
  58       15       54 1
  59       16       55 1
  60       21       56 1
  61       21       57 1
  62       22       58 1
  63       22       59 1
  64       26       60 1
  65       26       61 1
  66       28       62 1
  67       31       63 1
  68       32       64 1
  69       33       65 1
  70       34       66 1
  71       36       67 1
  72       36       68 1
  73       37       69 1
  74       37       70 1

@<TRIPOS>MOLECULE

  70   74
SMALL
USER_CHARGES
@<TRIPOS>ATOM
   1 C1           2.3449     2.3449     5.5531 C.3          1    LIG   0.0000
   2 C2           2.6374     2.6374     4.0905 C.3          1    LIG   0.0000
   3 C3           4.1000     2.3449     3.7980 C.3          1    LIG   0.0000
   4 C4           1.7598     1.7598     3.2129 C.2          1    LIG   0.0000
   5 O5           0.9891     0.9891     3.7150 O.2          1    LIG   0.0000
   6 N6           1.8487     1.8487     1.8487 N.am         1    LIG   0.0000
   7 C7           1.0000     1.0000     1.0000 C.3          1    LIG   0.0000
   8 C8           0.1224     1.8776     0.1224 C.3          1    LIG   0.0000
   9 C9          -0.7546     1.0005    -0.7546 C.2          1    LIG   0.0000
  10 C10         -0.4152     0.5508    -1.9950 C.2          1    LIG   0.0000
  11 N11         -1.4673    -0.1922    -2.4393 N.pl3        1    LIG   0.0000
  12 C12         -2.4575    -0.2130    -1.5007 C.ar         1    LIG   0.0000
  13 C13         -3.7085    -0.8204    -1.4808 C.ar         1    LIG   0.0000
  14 C14         -4.5555    -0.6930    -0.3849 C.ar         1    LIG   0.0000
  15 C15         -4.1383     0.0569     0.7098 C.ar         1    LIG   0.0000
  16 C16         -2.8840     0.6583     0.6818 C.ar         1    LIG   0.0000
  17 C17         -2.0431     0.5244    -0.4184 C.ar         1    LIG   0.0000
  18 C18          1.8776     0.1224     0.1224 C.2          1    LIG   0.0000
  19 O19          1.5740    -0.0766    -1.0213 O.2          1    LIG   0.0000
  20 N20          3.0395    -0.4533     0.6483 N.am         1    LIG   0.0000
  21 C21          3.9068    -1.3062    -0.1772 C.3          1    LIG   0.0000
  22 C22          5.3299    -1.2428     0.3515 C.3          1    LIG   0.0000
  23 N23          5.2913    -1.6932     1.7493 N.am         1    LIG   0.0000
  24 C24          6.3995    -2.3658     2.2771 C.2          1    LIG   0.0000
  25 O25          7.3624    -2.5669     1.5899 O.2          1    LIG   0.0000
  26 C26          6.3832    -2.8414     3.7206 C.3          1    LIG   0.0000
  27 C27          7.1578    -1.8617     4.5854 C.2          1    LIG   0.0000
  28 C28          6.5957    -0.8947     5.3633 C.2          1    LIG   0.0000
  29 N29          7.6244    -0.2366     5.9674 N.pl3        1    LIG   0.0000
  30 C30          8.8176    -0.7730     5.5796 C.ar         1    LIG   0.0000
  31 C31         10.1312    -0.4571     5.9097 C.ar         1    LIG   0.0000
  32 C32         11.2009    -1.1657     5.3728 C.ar         1    LIG   0.0000
  33 C33         10.9464    -2.2099     4.4898 C.ar         1    LIG   0.0000
  34 C34          9.6290    -2.5204     4.1679 C.ar         1    LIG   0.0000
  35 C35          8.5653    -1.8066     4.7108 C.ar         1    LIG   0.0000
  36 C36          4.0870    -1.4620     2.5597 C.3          1    LIG   0.0000
  37 C37          3.3705    -0.2182     2.0600 C.3          1    LIG   0.0000
  38 H            0.4226     0.4226     1.5774 H            1    LIG   0.0000
  39 H           -1.5079    -0.6552    -3.3247 H            1    LIG   0.0000
  40 H            7.5201     0.5285     6.6027 H            1    LIG   0.0000
  41 H            2.9222     2.9222     6.1305 H            1    LIG   0.0000
  42 H            1.3826     2.5373     5.7456 H            1    LIG   0.0000
  43 H            2.5373     1.3826     5.7456 H            1    LIG   0.0000
  44 H            2.4449     3.5996     3.8980 H            1    LIG   0.0000
  45 H            4.6774     2.9222     4.3753 H            1    LIG   0.0000
  46 H            4.2925     1.3826     3.9904 H            1    LIG   0.0000
  47 H            4.2925     2.5373     2.8357 H            1    LIG   0.0000
  48 H            2.4909     2.4909     1.4303 H            1    LIG   0.0000
  49 H           -0.4549     2.4549     0.6998 H            1    LIG   0.0000
  50 H            0.6998     2.4549    -0.4549 H            1    LIG   0.0000
  51 H            0.4385     0.7308    -2.4836 H            1    LIG   0.0000
  52 H           -4.0047    -1.3591    -2.2695 H            1    LIG   0.0000
  53 H           -5.4526    -1.1348    -0.3840 H            1    LIG   0.0000
  54 H           -4.7326     0.1626     1.5070 H            1    LIG   0.0000
  55 H           -2.5811     1.1972     1.4678 H            1    LIG   0.0000
  56 H            3.8881    -0.9838    -1.1237 H            1    LIG   0.0000
  57 H            3.5791    -2.2502    -0.1401 H            1    LIG   0.0000
  58 H            5.9226    -1.8427    -0.1860 H            1    LIG   0.0000
  59 H            5.6727    -0.3047     0.3026 H            1    LIG   0.0000
  60 H            6.8076    -3.7450     3.7787 H            1    LIG   0.0000
  61 H            5.4381    -2.8957     4.0431 H            1    LIG   0.0000
  62 H            5.6196    -0.7052     5.4699 H            1    LIG   0.0000
  63 H           10.3101     0.2940     6.5452 H            1    LIG   0.0000
  64 H           12.1406    -0.9277     5.6184 H            1    LIG   0.0000
  65 H           11.7011    -2.7310     4.0911 H            1    LIG   0.0000
  66 H            9.4430    -3.2712     3.5341 H            1    LIG   0.0000
  67 H            4.3486    -1.3341     3.5163 H            1    LIG   0.0000
  68 H            3.4774    -2.2510     2.4833 H            1    LIG   0.0000
  69 H            2.5350    -0.0672     2.5884 H            1    LIG   0.0000
  70 H            3.9673     0.5797     2.1448 H            1    LIG   0.0000
@<TRIPOS>BOND
   1        1        2 1
   2        2        3 1
   3        2        4 1
   4        4        5 2
   5        4        6 am
   6        6        7 1
   7        7        8 1
   8        8        9 1
   9        9       10 2
  10       10       11 1
  11       11       12 1
  12       12       13 ar
  13       13       14 ar
  14       14       15 ar
  15       15       16 ar
  16       16       17 ar
  17       17        9 1
  18       17       12 ar
  19        7       18 1
  20       18       19 2
  21       18       20 am
  22       20       21 1
  23       21       22 1
  24       22       23 1
  25       23       24 am
  26       24       25 2
  27       24       26 1
  28       26       27 1
  29       27       28 2
  30       28       29 1
  31       29       30 1
  32       30       31 ar
  33       31       32 ar
  34       32       33 ar
  35       33       34 ar
  36       34       35 ar
  37       35       27 1
  38       35       30 ar
  39       23       36 1
  40       36       37 1
  41       37       20 1
  42        7       38 1
  43       11       39 1
  44       29       40 1
  45        1       41 1
  46        1       42 1
  47        1       43 1
  48        2       44 1
  49        3       45 1
  50        3       46 1
  51        3       47 1
  52        6       48 1
  53        8       49 1
  54        8       50 1
  55       10       51 1
  56       13       52 1
  57       14       53 1
  58       15       54 1
  59       16       55 1
  60       21       56 1
  61       21       57 1
  62       22       58 1
  63       22       59 1
  64       26       60 1
  65       26       61 1
  66       28       62 1
  67       31       63 1
  68       32       64 1
  69       33       65 1
  70       34       66 1
  71       36       67 1
  72       36       68 1
  73       37       69 1
  74       37       70 1

@<TRIPOS>MOLECULE

  70   74
SMALL
USER_CHARGES
@<TRIPOS>ATOM
   1 C1           2.3449     2.3449     5.5531 C.3          1    LIG   0.0000
   2 C2           2.6374     2.6374     4.0905 C.3          1    LIG   0.0000
   3 C3           4.1000     2.3449     3.7980 C.3          1    LIG   0.0000
   4 C4           1.7598     1.7598     3.2129 C.2          1    LIG   0.0000
   5 O5           0.9891     0.9891     3.7150 O.2          1    LIG   0.0000
   6 N6           1.8487     1.8487     1.8487 N.am         1    LIG   0.0000
   7 C7           1.0000     1.0000     1.0000 C.3          1    LIG   0.0000
   8 C8           0.1224     1.8776     0.1224 C.3          1    LIG   0.0000
   9 C9          -0.7546     1.0005    -0.7546 C.2          1    LIG   0.0000
  10 C10         -0.4152     0.5508    -1.9950 C.2          1    LIG   0.0000
  11 N11         -1.4673    -0.1922    -2.4393 N.pl3        1    LIG   0.0000
  12 C12         -2.4575    -0.2130    -1.5007 C.ar         1    LIG   0.0000
  13 C13         -3.7085    -0.8204    -1.4808 C.ar         1    LIG   0.0000
  14 C14         -4.5555    -0.6930    -0.3849 C.ar         1    LIG   0.0000
  15 C15         -4.1383     0.0569     0.7098 C.ar         1    LIG   0.0000
  16 C16         -2.8840     0.6583     0.6818 C.ar         1    LIG   0.0000
  17 C17         -2.0431     0.5244    -0.4184 C.ar         1    LIG   0.0000
  18 C18          1.8776     0.1224     0.1224 C.2          1    LIG   0.0000
  19 O19          1.5740    -0.0766    -1.0213 O.2          1    LIG   0.0000
  20 N20          3.0395    -0.4533     0.6483 N.am         1    LIG   0.0000
  21 C21          3.9068    -1.3062    -0.1772 C.3          1    LIG   0.0000
  22 C22          5.3299    -1.2428     0.3515 C.3          1    LIG   0.0000
  23 N23          5.2913    -1.6932     1.7493 N.am         1    LIG   0.0000
  24 C24          6.3995    -2.3658     2.2771 C.2          1    LIG   0.0000
  25 O25          6.3866    -2.7413     3.4167 O.2          1    LIG   0.0000
  26 C26          7.6192    -2.6206     1.4066 C.3          1    LIG   0.0000
  27 C27          8.6888    -1.5881     1.7191 C.2          1    LIG   0.0000
  28 C28          8.9413    -0.4765     0.9731 C.2          1    LIG   0.0000
  29 N29          9.9687     0.1762     1.5853 N.pl3        1    LIG   0.0000
  30 C30         10.3635    -0.5081     2.6979 C.ar         1    LIG   0.0000
  31 C31         11.3543    -0.2583     3.6415 C.ar         1    LIG   0.0000
  32 C32         11.5683    -1.1229     4.7097 C.ar         1    LIG   0.0000
  33 C33         10.7730    -2.2575     4.8323 C.ar         1    LIG   0.0000
  34 C34          9.7825    -2.4973     3.8852 C.ar         1    LIG   0.0000
  35 C35          9.5751    -1.6261     2.8205 C.ar         1    LIG   0.0000
  36 C36          4.0870    -1.4620     2.5597 C.3          1    LIG   0.0000
  37 C37          3.3705    -0.2182     2.0600 C.3          1    LIG   0.0000
  38 H            0.4226     0.4226     1.5774 H            1    LIG   0.0000
  39 H           -1.5079    -0.6552    -3.3247 H            1    LIG   0.0000
  40 H           10.3745     1.0325     1.2658 H            1    LIG   0.0000
  41 H            2.9222     2.9222     6.1305 H            1    LIG   0.0000
  42 H            1.3826     2.5373     5.7456 H            1    LIG   0.0000
  43 H            2.5373     1.3826     5.7456 H            1    LIG   0.0000
  44 H            2.4449     3.5996     3.8980 H            1    LIG   0.0000
  45 H            4.6774     2.9222     4.3753 H            1    LIG   0.0000
  46 H            4.2925     1.3826     3.9904 H            1    LIG   0.0000
  47 H            4.2925     2.5373     2.8357 H            1    LIG   0.0000
  48 H            2.4909     2.4909     1.4303 H            1    LIG   0.0000
  49 H           -0.4549     2.4549     0.6998 H            1    LIG   0.0000
  50 H            0.6998     2.4549    -0.4549 H            1    LIG   0.0000
  51 H            0.4385     0.7308    -2.4836 H            1    LIG   0.0000
  52 H           -4.0047    -1.3591    -2.2695 H            1    LIG   0.0000
  53 H           -5.4526    -1.1348    -0.3840 H            1    LIG   0.0000
  54 H           -4.7326     0.1626     1.5070 H            1    LIG   0.0000
  55 H           -2.5811     1.1972     1.4678 H            1    LIG   0.0000
  56 H            3.8881    -0.9838    -1.1237 H            1    LIG   0.0000
  57 H            3.5791    -2.2502    -0.1401 H            1    LIG   0.0000
  58 H            5.9226    -1.8427    -0.1860 H            1    LIG   0.0000
  59 H            5.6727    -0.3047     0.3026 H            1    LIG   0.0000
  60 H            7.3612    -2.5520     0.4429 H            1    LIG   0.0000
  61 H            7.9756    -3.5363     1.5920 H            1    LIG   0.0000
  62 H            8.4658    -0.1948     0.1397 H            1    LIG   0.0000
  63 H           11.9237     0.5587     3.5501 H            1    LIG   0.0000
  64 H           12.2845    -0.9314     5.3808 H            1    LIG   0.0000
  65 H           10.9114    -2.8930     5.5919 H            1    LIG   0.0000
  66 H            9.2086    -3.3117     3.9714 H            1    LIG   0.0000
  67 H            4.3486    -1.3341     3.5163 H            1    LIG   0.0000
  68 H            3.4774    -2.2510     2.4833 H            1    LIG   0.0000
  69 H            2.5350    -0.0672     2.5884 H            1    LIG   0.0000
  70 H            3.9673     0.5797     2.1448 H            1    LIG   0.0000
@<TRIPOS>BOND
   1        1        2 1
   2        2        3 1
   3        2        4 1
   4        4        5 2
   5        4        6 am
   6        6        7 1
   7        7        8 1
   8        8        9 1
   9        9       10 2
  10       10       11 1
  11       11       12 1
  12       12       13 ar
  13       13       14 ar
  14       14       15 ar
  15       15       16 ar
  16       16       17 ar
  17       17        9 1
  18       17       12 ar
  19        7       18 1
  20       18       19 2
  21       18       20 am
  22       20       21 1
  23       21       22 1
  24       22       23 1
  25       23       24 am
  26       24       25 2
  27       24       26 1
  28       26       27 1
  29       27       28 2
  30       28       29 1
  31       29       30 1
  32       30       31 ar
  33       31       32 ar
  34       32       33 ar
  35       33       34 ar
  36       34       35 ar
  37       35       27 1
  38       35       30 ar
  39       23       36 1
  40       36       37 1
  41       37       20 1
  42        7       38 1
  43       11       39 1
  44       29       40 1
  45        1       41 1
  46        1       42 1
  47        1       43 1
  48        2       44 1
  49        3       45 1
  50        3       46 1
  51        3       47 1
  52        6       48 1
  53        8       49 1
  54        8       50 1
  55       10       51 1
  56       13       52 1
  57       14       53 1
  58       15       54 1
  59       16       55 1
  60       21       56 1
  61       21       57 1
  62       22       58 1
  63       22       59 1
  64       26       60 1
  65       26       61 1
  66       28       62 1
  67       31       63 1
  68       32       64 1
  69       33       65 1
  70       34       66 1
  71       36       67 1
  72       36       68 1
  73       37       69 1
  74       37       70 1

@<TRIPOS>MOLECULE

  70   74
SMALL
USER_CHARGES
@<TRIPOS>ATOM
   1 C1           2.3449     2.3449     5.5531 C.3          1    LIG   0.0000
   2 C2           2.6374     2.6374     4.0905 C.3          1    LIG   0.0000
   3 C3           4.1000     2.3449     3.7980 C.3          1    LIG   0.0000
   4 C4           1.7598     1.7598     3.2129 C.2          1    LIG   0.0000
   5 O5           0.9891     0.9891     3.7150 O.2          1    LIG   0.0000
   6 N6           1.8487     1.8487     1.8487 N.am         1    LIG   0.0000
   7 C7           1.0000     1.0000     1.0000 C.3          1    LIG   0.0000
   8 C8           0.1224     1.8776     0.1224 C.3          1    LIG   0.0000
   9 C9          -0.7546     1.0005    -0.7546 C.2          1    LIG   0.0000
  10 C10         -0.4152     0.5508    -1.9950 C.2          1    LIG   0.0000
  11 N11         -1.4673    -0.1922    -2.4393 N.pl3        1    LIG   0.0000
  12 C12         -2.4575    -0.2130    -1.5007 C.ar         1    LIG   0.0000
  13 C13         -3.7085    -0.8204    -1.4808 C.ar         1    LIG   0.0000
  14 C14         -4.5555    -0.6930    -0.3849 C.ar         1    LIG   0.0000
  15 C15         -4.1383     0.0569     0.7098 C.ar         1    LIG   0.0000
  16 C16         -2.8840     0.6583     0.6818 C.ar         1    LIG   0.0000
  17 C17         -2.0431     0.5244    -0.4184 C.ar         1    LIG   0.0000
  18 C18          1.8776     0.1224     0.1224 C.2          1    LIG   0.0000
  19 O19          1.5740    -0.0766    -1.0213 O.2          1    LIG   0.0000
  20 N20          3.0395    -0.4533     0.6483 N.am         1    LIG   0.0000
  21 C21          3.9068    -1.3062    -0.1772 C.3          1    LIG   0.0000
  22 C22          5.3299    -1.2428     0.3515 C.3          1    LIG   0.0000
  23 N23          5.2913    -1.6932     1.7493 N.am         1    LIG   0.0000
  24 C24          6.3995    -2.3658     2.2771 C.2          1    LIG   0.0000
  25 O25          6.3866    -2.7413     3.4167 O.2          1    LIG   0.0000
  26 C26          7.6192    -2.6206     1.4066 C.3          1    LIG   0.0000
  27 C27          7.5866    -4.0506     0.8953 C.2          1    LIG   0.0000
  28 C28          7.1726    -4.4252    -0.3475 C.2          1    LIG   0.0000
  29 N29          7.2936    -5.7811    -0.4041 N.pl3        1    LIG   0.0000
  30 C30          7.7731    -6.2599     0.7803 C.ar         1    LIG   0.0000
  31 C31          8.0631    -7.5491     1.2140 C.ar         1    LIG   0.0000
  32 C32          8.5533    -7.7872     2.4937 C.ar         1    LIG   0.0000
  33 C33          8.7560    -6.7116     3.3520 C.ar         1    LIG   0.0000
  34 C34          8.4658    -5.4254     2.9083 C.ar         1    LIG   0.0000
  35 C35          7.9768    -5.1968     1.6260 C.ar         1    LIG   0.0000
  36 C36          4.0870    -1.4620     2.5597 C.3          1    LIG   0.0000
  37 C37          3.3705    -0.2182     2.0600 C.3          1    LIG   0.0000
  38 H            0.4226     0.4226     1.5774 H            1    LIG   0.0000
  39 H           -1.5079    -0.6552    -3.3247 H            1    LIG   0.0000
  40 H            7.0643    -6.3437    -1.1983 H            1    LIG   0.0000
  41 H            2.9222     2.9222     6.1305 H            1    LIG   0.0000
  42 H            1.3826     2.5373     5.7456 H            1    LIG   0.0000
  43 H            2.5373     1.3826     5.7456 H            1    LIG   0.0000
  44 H            2.4449     3.5996     3.8980 H            1    LIG   0.0000
  45 H            4.6774     2.9222     4.3753 H            1    LIG   0.0000
  46 H            4.2925     1.3826     3.9904 H            1    LIG   0.0000
  47 H            4.2925     2.5373     2.8357 H            1    LIG   0.0000
  48 H            2.4909     2.4909     1.4303 H            1    LIG   0.0000
  49 H           -0.4549     2.4549     0.6998 H            1    LIG   0.0000
  50 H            0.6998     2.4549    -0.4549 H            1    LIG   0.0000
  51 H            0.4385     0.7308    -2.4836 H            1    LIG   0.0000
  52 H           -4.0047    -1.3591    -2.2695 H            1    LIG   0.0000
  53 H           -5.4526    -1.1348    -0.3840 H            1    LIG   0.0000
  54 H           -4.7326     0.1626     1.5070 H            1    LIG   0.0000
  55 H           -2.5811     1.1972     1.4678 H            1    LIG   0.0000
  56 H            3.8881    -0.9838    -1.1237 H            1    LIG   0.0000
  57 H            3.5791    -2.2502    -0.1401 H            1    LIG   0.0000
  58 H            5.9226    -1.8427    -0.1860 H            1    LIG   0.0000
  59 H            5.6727    -0.3047     0.3026 H            1    LIG   0.0000
  60 H            8.4492    -2.4783     1.9460 H            1    LIG   0.0000
  61 H            7.6132    -1.9891     0.6313 H            1    LIG   0.0000
  62 H            6.8444    -3.8231    -1.0753 H            1    LIG   0.0000
  63 H            7.9165    -8.3198     0.5938 H            1    LIG   0.0000
  64 H            8.7573    -8.7193     2.7927 H            1    LIG   0.0000
  65 H            9.1060    -6.8610     4.2768 H            1    LIG   0.0000
  66 H            8.6114    -4.6501     3.5228 H            1    LIG   0.0000
  67 H            4.3486    -1.3341     3.5163 H            1    LIG   0.0000
  68 H            3.4774    -2.2510     2.4833 H            1    LIG   0.0000
  69 H            2.5350    -0.0672     2.5884 H            1    LIG   0.0000
  70 H            3.9673     0.5797     2.1448 H            1    LIG   0.0000
@<TRIPOS>BOND
   1        1        2 1
   2        2        3 1
   3        2        4 1
   4        4        5 2
   5        4        6 am
   6        6        7 1
   7        7        8 1
   8        8        9 1
   9        9       10 2
  10       10       11 1
  11       11       12 1
  12       12       13 ar
  13       13       14 ar
  14       14       15 ar
  15       15       16 ar
  16       16       17 ar
  17       17        9 1
  18       17       12 ar
  19        7       18 1
  20       18       19 2
  21       18       20 am
  22       20       21 1
  23       21       22 1
  24       22       23 1
  25       23       24 am
  26       24       25 2
  27       24       26 1
  28       26       27 1
  29       27       28 2
  30       28       29 1
  31       29       30 1
  32       30       31 ar
  33       31       32 ar
  34       32       33 ar
  35       33       34 ar
  36       34       35 ar
  37       35       27 1
  38       35       30 ar
  39       23       36 1
  40       36       37 1
  41       37       20 1
  42        7       38 1
  43       11       39 1
  44       29       40 1
  45        1       41 1
  46        1       42 1
  47        1       43 1
  48        2       44 1
  49        3       45 1
  50        3       46 1
  51        3       47 1
  52        6       48 1
  53        8       49 1
  54        8       50 1
  55       10       51 1
  56       13       52 1
  57       14       53 1
  58       15       54 1
  59       16       55 1
  60       21       56 1
  61       21       57 1
  62       22       58 1
  63       22       59 1
  64       26       60 1
  65       26       61 1
  66       28       62 1
  67       31       63 1
  68       32       64 1
  69       33       65 1
  70       34       66 1
  71       36       67 1
  72       36       68 1
  73       37       69 1
  74       37       70 1

@<TRIPOS>MOLECULE

  70   74
SMALL
USER_CHARGES
@<TRIPOS>ATOM
   1 C1           2.3449     2.3449     5.5531 C.3          1    LIG   0.0000
   2 C2           2.6374     2.6374     4.0905 C.3          1    LIG   0.0000
   3 C3           4.1000     2.3449     3.7980 C.3          1    LIG   0.0000
   4 C4           1.7598     1.7598     3.2129 C.2          1    LIG   0.0000
   5 O5           0.9891     0.9891     3.7150 O.2          1    LIG   0.0000
   6 N6           1.8487     1.8487     1.8487 N.am         1    LIG   0.0000
   7 C7           1.0000     1.0000     1.0000 C.3          1    LIG   0.0000
   8 C8           0.1224     1.8776     0.1224 C.3          1    LIG   0.0000
   9 C9          -0.7546     1.0005    -0.7546 C.2          1    LIG   0.0000
  10 C10         -0.4152     0.5508    -1.9950 C.2          1    LIG   0.0000
  11 N11         -1.4673    -0.1922    -2.4393 N.pl3        1    LIG   0.0000
  12 C12         -2.4575    -0.2130    -1.5007 C.ar         1    LIG   0.0000
  13 C13         -3.7085    -0.8204    -1.4808 C.ar         1    LIG   0.0000
  14 C14         -4.5555    -0.6930    -0.3849 C.ar         1    LIG   0.0000
  15 C15         -4.1383     0.0569     0.7098 C.ar         1    LIG   0.0000
  16 C16         -2.8840     0.6583     0.6818 C.ar         1    LIG   0.0000
  17 C17         -2.0431     0.5244    -0.4184 C.ar         1    LIG   0.0000
  18 C18          1.8776     0.1224     0.1224 C.2          1    LIG   0.0000
  19 O19          1.5740    -0.0766    -1.0213 O.2          1    LIG   0.0000
  20 N20          3.0395    -0.4533     0.6483 N.am         1    LIG   0.0000
  21 C21          3.4357    -0.2267     2.0457 C.3          1    LIG   0.0000
  22 C22          4.2617    -1.4045     2.5348 C.3          1    LIG   0.0000
  23 N23          5.4272    -1.5125     1.6469 N.am         1    LIG   0.0000
  24 C24          6.6361    -1.9881     2.1678 C.2          1    LIG   0.0000
  25 O25          6.7096    -2.3006     3.3240 O.2          1    LIG   0.0000
  26 C26          7.8558    -2.1088     1.2688 C.3          1    LIG   0.0000
  27 C27          9.0270    -2.6453     2.0739 C.2          1    LIG   0.0000
  28 C28          9.4473    -3.9412     2.0703 C.2          1    LIG   0.0000
  29 N29         10.5110    -4.0061     2.9192 N.pl3        1    LIG   0.0000
  30 C30         10.7611    -2.7759     3.4539 C.ar         1    LIG   0.0000
  31 C31         11.7208    -2.3313     4.3572 C.ar         1    LIG   0.0000
  32 C32         11.7739    -1.0002     4.7571 C.ar         1    LIG   0.0000
  33 C33         10.8475    -0.1004     4.2403 C.ar         1    LIG   0.0000
  34 C34          9.8933    -0.5539     3.3351 C.ar         1    LIG   0.0000
  35 C35          9.8486    -1.8872     2.9400 C.ar         1    LIG   0.0000
  36 C36          5.3185    -1.0931     0.2423 C.3          1    LIG   0.0000
  37 C37          3.8853    -1.2716    -0.2309 C.3          1    LIG   0.0000
  38 H            0.4226     0.4226     1.5774 H            1    LIG   0.0000
  39 H           -1.5079    -0.6552    -3.3247 H            1    LIG   0.0000
  40 H           11.0327    -4.8350     3.1210 H            1    LIG   0.0000
  41 H            2.9222     2.9222     6.1305 H            1    LIG   0.0000
  42 H            1.3826     2.5373     5.7456 H            1    LIG   0.0000
  43 H            2.5373     1.3826     5.7456 H            1    LIG   0.0000
  44 H            2.4449     3.5996     3.8980 H            1    LIG   0.0000
  45 H            4.6774     2.9222     4.3753 H            1    LIG   0.0000
  46 H            4.2925     1.3826     3.9904 H            1    LIG   0.0000
  47 H            4.2925     2.5373     2.8357 H            1    LIG   0.0000
  48 H            2.4909     2.4909     1.4303 H            1    LIG   0.0000
  49 H           -0.4549     2.4549     0.6998 H            1    LIG   0.0000
  50 H            0.6998     2.4549    -0.4549 H            1    LIG   0.0000
  51 H            0.4385     0.7308    -2.4836 H            1    LIG   0.0000
  52 H           -4.0047    -1.3591    -2.2695 H            1    LIG   0.0000
  53 H           -5.4526    -1.1348    -0.3840 H            1    LIG   0.0000
  54 H           -4.7326     0.1626     1.5070 H            1    LIG   0.0000
  55 H           -2.5811     1.1972     1.4678 H            1    LIG   0.0000
  56 H            2.6177    -0.1344     2.6134 H            1    LIG   0.0000
  57 H            3.9798     0.6102     2.1064 H            1    LIG   0.0000
  58 H            4.5608    -1.2465     3.4758 H            1    LIG   0.0000
  59 H            3.7201    -2.2441     2.4936 H            1    LIG   0.0000
  60 H            8.0889    -1.2087     0.9006 H            1    LIG   0.0000
  61 H            7.6542    -2.7350     0.5158 H            1    LIG   0.0000
  62 H            9.0525    -4.6966     1.5474 H            1    LIG   0.0000
  63 H           12.3853    -2.9811     4.7262 H            1    LIG   0.0000
  64 H           12.4689    -0.6940     5.4076 H            1    LIG   0.0000
  65 H           10.8671     0.8606     4.5160 H            1    LIG   0.0000
  66 H            9.2267     0.0909     2.9612 H            1    LIG   0.0000
  67 H            5.9273    -1.6522    -0.3204 H            1    LIG   0.0000
  68 H            5.5790    -0.1311     0.1607 H            1    LIG   0.0000
  69 H            3.7952    -0.9639    -1.1781 H            1    LIG   0.0000
  70 H            3.6191    -2.2333    -0.1660 H            1    LIG   0.0000
@<TRIPOS>BOND
   1        1        2 1
   2        2        3 1
   3        2        4 1
   4        4        5 2
   5        4        6 am
   6        6        7 1
   7        7        8 1
   8        8        9 1
   9        9       10 2
  10       10       11 1
  11       11       12 1
  12       12       13 ar
  13       13       14 ar
  14       14       15 ar
  15       15       16 ar
  16       16       17 ar
  17       17        9 1
  18       17       12 ar
  19        7       18 1
  20       18       19 2
  21       18       20 am
  22       20       21 1
  23       21       22 1
  24       22       23 1
  25       23       24 am
  26       24       25 2
  27       24       26 1
  28       26       27 1
  29       27       28 2
  30       28       29 1
  31       29       30 1
  32       30       31 ar
  33       31       32 ar
  34       32       33 ar
  35       33       34 ar
  36       34       35 ar
  37       35       27 1
  38       35       30 ar
  39       23       36 1
  40       36       37 1
  41       37       20 1
  42        7       38 1
  43       11       39 1
  44       29       40 1
  45        1       41 1
  46        1       42 1
  47        1       43 1
  48        2       44 1
  49        3       45 1
  50        3       46 1
  51        3       47 1
  52        6       48 1
  53        8       49 1
  54        8       50 1
  55       10       51 1
  56       13       52 1
  57       14       53 1
  58       15       54 1
  59       16       55 1
  60       21       56 1
  61       21       57 1
  62       22       58 1
  63       22       59 1
  64       26       60 1
  65       26       61 1
  66       28       62 1
  67       31       63 1
  68       32       64 1
  69       33       65 1
  70       34       66 1
  71       36       67 1
  72       36       68 1
  73       37       69 1
  74       37       70 1

@<TRIPOS>MOLECULE

  70   74
SMALL
USER_CHARGES
@<TRIPOS>ATOM
   1 C1           2.3449     2.3449     5.5531 C.3          1    LIG   0.0000
   2 C2           2.6374     2.6374     4.0905 C.3          1    LIG   0.0000
   3 C3           4.1000     2.3449     3.7980 C.3          1    LIG   0.0000
   4 C4           1.7598     1.7598     3.2129 C.2          1    LIG   0.0000
   5 O5           0.9891     0.9891     3.7150 O.2          1    LIG   0.0000
   6 N6           1.8487     1.8487     1.8487 N.am         1    LIG   0.0000
   7 C7           1.0000     1.0000     1.0000 C.3          1    LIG   0.0000
   8 C8           0.1224     1.8776     0.1224 C.3          1    LIG   0.0000
   9 C9          -0.7546     1.0005    -0.7546 C.2          1    LIG   0.0000
  10 C10         -0.4152     0.5508    -1.9950 C.2          1    LIG   0.0000
  11 N11         -1.4673    -0.1922    -2.4393 N.pl3        1    LIG   0.0000
  12 C12         -2.4575    -0.2130    -1.5007 C.ar         1    LIG   0.0000
  13 C13         -3.7085    -0.8204    -1.4808 C.ar         1    LIG   0.0000
  14 C14         -4.5555    -0.6930    -0.3849 C.ar         1    LIG   0.0000
  15 C15         -4.1383     0.0569     0.7098 C.ar         1    LIG   0.0000
  16 C16         -2.8840     0.6583     0.6818 C.ar         1    LIG   0.0000
  17 C17         -2.0431     0.5244    -0.4184 C.ar         1    LIG   0.0000
  18 C18          1.8776     0.1224     0.1224 C.2          1    LIG   0.0000
  19 O19          1.5740    -0.0766    -1.0213 O.2          1    LIG   0.0000
  20 N20          3.0395    -0.4533     0.6483 N.am         1    LIG   0.0000
  21 C21          3.4357    -0.2267     2.0457 C.3          1    LIG   0.0000
  22 C22          4.2617    -1.4045     2.5348 C.3          1    LIG   0.0000
  23 N23          5.4272    -1.5125     1.6469 N.am         1    LIG   0.0000
  24 C24          6.6361    -1.9881     2.1678 C.2          1    LIG   0.0000
  25 O25          6.7096    -2.3006     3.3240 O.2          1    LIG   0.0000
  26 C26          7.8558    -2.1088     1.2688 C.3          1    LIG   0.0000
  27 C27          9.0270    -2.6453     2.0739 C.2          1    LIG   0.0000
  28 C28         10.0337    -1.8846     2.5878 C.2          1    LIG   0.0000
  29 N29         10.8768    -2.7404     3.2305 N.pl3        1    LIG   0.0000
  30 C30         10.4167    -4.0207     3.1255 C.ar         1    LIG   0.0000
  31 C31         10.9127    -5.2299     3.6010 C.ar         1    LIG   0.0000
  32 C32         10.2483    -6.4278     3.3593 C.ar         1    LIG   0.0000
  33 C33          9.0653    -6.4103     2.6280 C.ar         1    LIG   0.0000
  34 C34          8.5754    -5.1955     2.1591 C.ar         1    LIG   0.0000
  35 C35          9.2463    -4.0021     2.4068 C.ar         1    LIG   0.0000
  36 C36          5.3185    -1.0931     0.2423 C.3          1    LIG   0.0000
  37 C37          3.8853    -1.2716    -0.2309 C.3          1    LIG   0.0000
  38 H            0.4226     0.4226     1.5774 H            1    LIG   0.0000
  39 H           -1.5079    -0.6552    -3.3247 H            1    LIG   0.0000
  40 H           11.7117    -2.4695     3.7096 H            1    LIG   0.0000
  41 H            2.9222     2.9222     6.1305 H            1    LIG   0.0000
  42 H            1.3826     2.5373     5.7456 H            1    LIG   0.0000
  43 H            2.5373     1.3826     5.7456 H            1    LIG   0.0000
  44 H            2.4449     3.5996     3.8980 H            1    LIG   0.0000
  45 H            4.6774     2.9222     4.3753 H            1    LIG   0.0000
  46 H            4.2925     1.3826     3.9904 H            1    LIG   0.0000
  47 H            4.2925     2.5373     2.8357 H            1    LIG   0.0000
  48 H            2.4909     2.4909     1.4303 H            1    LIG   0.0000
  49 H           -0.4549     2.4549     0.6998 H            1    LIG   0.0000
  50 H            0.6998     2.4549    -0.4549 H            1    LIG   0.0000
  51 H            0.4385     0.7308    -2.4836 H            1    LIG   0.0000
  52 H           -4.0047    -1.3591    -2.2695 H            1    LIG   0.0000
  53 H           -5.4526    -1.1348    -0.3840 H            1    LIG   0.0000
  54 H           -4.7326     0.1626     1.5070 H            1    LIG   0.0000
  55 H           -2.5811     1.1972     1.4678 H            1    LIG   0.0000
  56 H            2.6177    -0.1344     2.6134 H            1    LIG   0.0000
  57 H            3.9798     0.6102     2.1064 H            1    LIG   0.0000
  58 H            4.5608    -1.2465     3.4758 H            1    LIG   0.0000
  59 H            3.7201    -2.2441     2.4936 H            1    LIG   0.0000
  60 H            8.0889    -1.2087     0.9006 H            1    LIG   0.0000
  61 H            7.6542    -2.7350     0.5158 H            1    LIG   0.0000
  62 H           10.1340    -0.8928     2.5088 H            1    LIG   0.0000
  63 H           11.7633    -5.2383     4.1268 H            1    LIG   0.0000
  64 H           10.6164    -7.2902     3.7068 H            1    LIG   0.0000
  65 H            8.5729    -7.2605     2.4416 H            1    LIG   0.0000
  66 H            7.7246    -5.1798     1.6339 H            1    LIG   0.0000
  67 H            5.9273    -1.6522    -0.3204 H            1    LIG   0.0000
  68 H            5.5790    -0.1311     0.1607 H            1    LIG   0.0000
  69 H            3.7952    -0.9639    -1.1781 H            1    LIG   0.0000
  70 H            3.6191    -2.2333    -0.1660 H            1    LIG   0.0000
@<TRIPOS>BOND
   1        1        2 1
   2        2        3 1
   3        2        4 1
   4        4        5 2
   5        4        6 am
   6        6        7 1
   7        7        8 1
   8        8        9 1
   9        9       10 2
  10       10       11 1
  11       11       12 1
  12       12       13 ar
  13       13       14 ar
  14       14       15 ar
  15       15       16 ar
  16       16       17 ar
  17       17        9 1
  18       17       12 ar
  19        7       18 1
  20       18       19 2
  21       18       20 am
  22       20       21 1
  23       21       22 1
  24       22       23 1
  25       23       24 am
  26       24       25 2
  27       24       26 1
  28       26       27 1
  29       27       28 2
  30       28       29 1
  31       29       30 1
  32       30       31 ar
  33       31       32 ar
  34       32       33 ar
  35       33       34 ar
  36       34       35 ar
  37       35       27 1
  38       35       30 ar
  39       23       36 1
  40       36       37 1
  41       37       20 1
  42        7       38 1
  43       11       39 1
  44       29       40 1
  45        1       41 1
  46        1       42 1
  47        1       43 1
  48        2       44 1
  49        3       45 1
  50        3       46 1
  51        3       47 1
  52        6       48 1
  53        8       49 1
  54        8       50 1
  55       10       51 1
  56       13       52 1
  57       14       53 1
  58       15       54 1
  59       16       55 1
  60       21       56 1
  61       21       57 1
  62       22       58 1
  63       22       59 1
  64       26       60 1
  65       26       61 1
  66       28       62 1
  67       31       63 1
  68       32       64 1
  69       33       65 1
  70       34       66 1
  71       36       67 1
  72       36       68 1
  73       37       69 1
  74       37       70 1

@<TRIPOS>MOLECULE

  70   74
SMALL
USER_CHARGES
@<TRIPOS>ATOM
   1 C1           2.3449     2.3449     5.5531 C.3          1    LIG   0.0000
   2 C2           2.6374     2.6374     4.0905 C.3          1    LIG   0.0000
   3 C3           4.1000     2.3449     3.7980 C.3          1    LIG   0.0000
   4 C4           1.7598     1.7598     3.2129 C.2          1    LIG   0.0000
   5 O5           0.9891     0.9891     3.7150 O.2          1    LIG   0.0000
   6 N6           1.8487     1.8487     1.8487 N.am         1    LIG   0.0000
   7 C7           1.0000     1.0000     1.0000 C.3          1    LIG   0.0000
   8 C8           0.1224     1.8776     0.1224 C.3          1    LIG   0.0000
   9 C9          -0.7546     1.0005    -0.7546 C.2          1    LIG   0.0000
  10 C10         -0.4152     0.5508    -1.9950 C.2          1    LIG   0.0000
  11 N11         -1.4673    -0.1922    -2.4393 N.pl3        1    LIG   0.0000
  12 C12         -2.4575    -0.2130    -1.5007 C.ar         1    LIG   0.0000
  13 C13         -3.7085    -0.8204    -1.4808 C.ar         1    LIG   0.0000
  14 C14         -4.5555    -0.6930    -0.3849 C.ar         1    LIG   0.0000
  15 C15         -4.1383     0.0569     0.7098 C.ar         1    LIG   0.0000
  16 C16         -2.8840     0.6583     0.6818 C.ar         1    LIG   0.0000
  17 C17         -2.0431     0.5244    -0.4184 C.ar         1    LIG   0.0000
  18 C18          1.8776     0.1224     0.1224 C.2          1    LIG   0.0000
  19 O19          1.5740    -0.0766    -1.0213 O.2          1    LIG   0.0000
  20 N20          3.0395    -0.4533     0.6483 N.am         1    LIG   0.0000
  21 C21          3.4357    -0.2267     2.0457 C.3          1    LIG   0.0000
  22 C22          4.2617    -1.4045     2.5348 C.3          1    LIG   0.0000
  23 N23          5.4272    -1.5125     1.6469 N.am         1    LIG   0.0000
  24 C24          6.6361    -1.9881     2.1678 C.2          1    LIG   0.0000
  25 O25          6.7096    -2.3006     3.3240 O.2          1    LIG   0.0000
  26 C26          7.8558    -2.1088     1.2688 C.3          1    LIG   0.0000
  27 C27          8.7704    -0.9168     1.4936 C.2          1    LIG   0.0000
  28 C28          8.8364     0.1786     0.6863 C.2          1    LIG   0.0000
  29 N29          9.7732     1.0050     1.2301 N.pl3        1    LIG   0.0000
  30 C30         10.2944     0.4452     2.3601 C.ar         1    LIG   0.0000
  31 C31         11.2632     0.8860     3.2555 C.ar         1    LIG   0.0000
  32 C32         11.6309     0.1194     4.3563 C.ar         1    LIG   0.0000
  33 C33         11.0144    -1.1105     4.5613 C.ar         1    LIG   0.0000
  34 C34         10.0444    -1.5415     3.6619 C.ar         1    LIG   0.0000
  35 C35          9.6823    -0.7673     2.5641 C.ar         1    LIG   0.0000
  36 C36          5.3185    -1.0931     0.2423 C.3          1    LIG   0.0000
  37 C37          3.8853    -1.2716    -0.2309 C.3          1    LIG   0.0000
  38 H            0.4226     0.4226     1.5774 H            1    LIG   0.0000
  39 H           -1.5079    -0.6552    -3.3247 H            1    LIG   0.0000
  40 H           10.0400     1.8930     0.8555 H            1    LIG   0.0000
  41 H            2.9222     2.9222     6.1305 H            1    LIG   0.0000
  42 H            1.3826     2.5373     5.7456 H            1    LIG   0.0000
  43 H            2.5373     1.3826     5.7456 H            1    LIG   0.0000
  44 H            2.4449     3.5996     3.8980 H            1    LIG   0.0000
  45 H            4.6774     2.9222     4.3753 H            1    LIG   0.0000
  46 H            4.2925     1.3826     3.9904 H            1    LIG   0.0000
  47 H            4.2925     2.5373     2.8357 H            1    LIG   0.0000
  48 H            2.4909     2.4909     1.4303 H            1    LIG   0.0000
  49 H           -0.4549     2.4549     0.6998 H            1    LIG   0.0000
  50 H            0.6998     2.4549    -0.4549 H            1    LIG   0.0000
  51 H            0.4385     0.7308    -2.4836 H            1    LIG   0.0000
  52 H           -4.0047    -1.3591    -2.2695 H            1    LIG   0.0000
  53 H           -5.4526    -1.1348    -0.3840 H            1    LIG   0.0000
  54 H           -4.7326     0.1626     1.5070 H            1    LIG   0.0000
  55 H           -2.5811     1.1972     1.4678 H            1    LIG   0.0000
  56 H            2.6177    -0.1344     2.6134 H            1    LIG   0.0000
  57 H            3.9798     0.6102     2.1064 H            1    LIG   0.0000
  58 H            4.5608    -1.2465     3.4758 H            1    LIG   0.0000
  59 H            3.7201    -2.2441     2.4936 H            1    LIG   0.0000
  60 H            7.5643    -2.1296     0.3125 H            1    LIG   0.0000
  61 H            8.3477    -2.9519     1.4859 H            1    LIG   0.0000
  62 H            8.3022     0.3437    -0.1428 H            1    LIG   0.0000
  63 H           11.7038     1.7710     3.1049 H            1    LIG   0.0000
  64 H           12.3293     0.4482     4.9920 H            1    LIG   0.0000
  65 H           11.2654    -1.6780     5.3455 H            1    LIG   0.0000
  66 H            9.5989    -2.4249     3.8073 H            1    LIG   0.0000
  67 H            5.9273    -1.6522    -0.3204 H            1    LIG   0.0000
  68 H            5.5790    -0.1311     0.1607 H            1    LIG   0.0000
  69 H            3.7952    -0.9639    -1.1781 H            1    LIG   0.0000
  70 H            3.6191    -2.2333    -0.1660 H            1    LIG   0.0000
@<TRIPOS>BOND
   1        1        2 1
   2        2        3 1
   3        2        4 1
   4        4        5 2
   5        4        6 am
   6        6        7 1
   7        7        8 1
   8        8        9 1
   9        9       10 2
  10       10       11 1
  11       11       12 1
  12       12       13 ar
  13       13       14 ar
  14       14       15 ar
  15       15       16 ar
  16       16       17 ar
  17       17        9 1
  18       17       12 ar
  19        7       18 1
  20       18       19 2
  21       18       20 am
  22       20       21 1
  23       21       22 1
  24       22       23 1
  25       23       24 am
  26       24       25 2
  27       24       26 1
  28       26       27 1
  29       27       28 2
  30       28       29 1
  31       29       30 1
  32       30       31 ar
  33       31       32 ar
  34       32       33 ar
  35       33       34 ar
  36       34       35 ar
  37       35       27 1
  38       35       30 ar
  39       23       36 1
  40       36       37 1
  41       37       20 1
  42        7       38 1
  43       11       39 1
  44       29       40 1
  45        1       41 1
  46        1       42 1
  47        1       43 1
  48        2       44 1
  49        3       45 1
  50        3       46 1
  51        3       47 1
  52        6       48 1
  53        8       49 1
  54        8       50 1
  55       10       51 1
  56       13       52 1
  57       14       53 1
  58       15       54 1
  59       16       55 1
  60       21       56 1
  61       21       57 1
  62       22       58 1
  63       22       59 1
  64       26       60 1
  65       26       61 1
  66       28       62 1
  67       31       63 1
  68       32       64 1
  69       33       65 1
  70       34       66 1
  71       36       67 1
  72       36       68 1
  73       37       69 1
  74       37       70 1

@<TRIPOS>MOLECULE

  70   74
SMALL
USER_CHARGES
@<TRIPOS>ATOM
   1 C1           2.3449     2.3449     5.5531 C.3          1    LIG   0.0000
   2 C2           2.6374     2.6374     4.0905 C.3          1    LIG   0.0000
   3 C3           4.1000     2.3449     3.7980 C.3          1    LIG   0.0000
   4 C4           1.7598     1.7598     3.2129 C.2          1    LIG   0.0000
   5 O5           0.9891     0.9891     3.7150 O.2          1    LIG   0.0000
   6 N6           1.8487     1.8487     1.8487 N.am         1    LIG   0.0000
   7 C7           1.0000     1.0000     1.0000 C.3          1    LIG   0.0000
   8 C8           0.1224     1.8776     0.1224 C.3          1    LIG   0.0000
   9 C9          -0.7546     1.0005    -0.7546 C.2          1    LIG   0.0000
  10 C10         -0.4152     0.5508    -1.9950 C.2          1    LIG   0.0000
  11 N11         -1.4673    -0.1922    -2.4393 N.pl3        1    LIG   0.0000
  12 C12         -2.4575    -0.2130    -1.5007 C.ar         1    LIG   0.0000
  13 C13         -3.7085    -0.8204    -1.4808 C.ar         1    LIG   0.0000
  14 C14         -4.5555    -0.6930    -0.3849 C.ar         1    LIG   0.0000
  15 C15         -4.1383     0.0569     0.7098 C.ar         1    LIG   0.0000
  16 C16         -2.8840     0.6583     0.6818 C.ar         1    LIG   0.0000
  17 C17         -2.0431     0.5244    -0.4184 C.ar         1    LIG   0.0000
  18 C18          1.8776     0.1224     0.1224 C.2          1    LIG   0.0000
  19 O19          1.5740    -0.0766    -1.0213 O.2          1    LIG   0.0000
  20 N20          3.0395    -0.4533     0.6483 N.am         1    LIG   0.0000
  21 C21          3.4357    -0.2267     2.0457 C.3          1    LIG   0.0000
  22 C22          4.2617    -1.4045     2.5348 C.3          1    LIG   0.0000
  23 N23          5.4272    -1.5125     1.6469 N.am         1    LIG   0.0000
  24 C24          6.6361    -1.9881     2.1678 C.2          1    LIG   0.0000
  25 O25          6.7096    -2.3006     3.3240 O.2          1    LIG   0.0000
  26 C26          7.8558    -2.1088     1.2688 C.3          1    LIG   0.0000
  27 C27          8.0195    -3.5535     0.8288 C.2          1    LIG   0.0000
  28 C28          7.6313    -4.0495    -0.3792 C.2          1    LIG   0.0000
  29 N29          7.9484    -5.3745    -0.3743 N.pl3        1    LIG   0.0000
  30 C30          8.5251    -5.7152     0.8145 C.ar         1    LIG   0.0000
  31 C31          9.0131    -6.9238     1.2998 C.ar         1    LIG   0.0000
  32 C32          9.5676    -7.0200     2.5717 C.ar         1    LIG   0.0000
  33 C33          9.6335    -5.8824     3.3694 C.ar         1    LIG   0.0000
  34 C34          9.1456    -4.6773     2.8742 C.ar         1    LIG   0.0000
  35 C35          8.5936    -4.5905     1.6001 C.ar         1    LIG   0.0000
  36 C36          5.3185    -1.0931     0.2423 C.3          1    LIG   0.0000
  37 C37          3.8853    -1.2716    -0.2309 C.3          1    LIG   0.0000
  38 H            0.4226     0.4226     1.5774 H            1    LIG   0.0000
  39 H           -1.5079    -0.6552    -3.3247 H            1    LIG   0.0000
  40 H            7.7826    -6.0058    -1.1319 H            1    LIG   0.0000
  41 H            2.9222     2.9222     6.1305 H            1    LIG   0.0000
  42 H            1.3826     2.5373     5.7456 H            1    LIG   0.0000
  43 H            2.5373     1.3826     5.7456 H            1    LIG   0.0000
  44 H            2.4449     3.5996     3.8980 H            1    LIG   0.0000
  45 H            4.6774     2.9222     4.3753 H            1    LIG   0.0000
  46 H            4.2925     1.3826     3.9904 H            1    LIG   0.0000
  47 H            4.2925     2.5373     2.8357 H            1    LIG   0.0000
  48 H            2.4909     2.4909     1.4303 H            1    LIG   0.0000
  49 H           -0.4549     2.4549     0.6998 H            1    LIG   0.0000
  50 H            0.6998     2.4549    -0.4549 H            1    LIG   0.0000
  51 H            0.4385     0.7308    -2.4836 H            1    LIG   0.0000
  52 H           -4.0047    -1.3591    -2.2695 H            1    LIG   0.0000
  53 H           -5.4526    -1.1348    -0.3840 H            1    LIG   0.0000
  54 H           -4.7326     0.1626     1.5070 H            1    LIG   0.0000
  55 H           -2.5811     1.1972     1.4678 H            1    LIG   0.0000
  56 H            2.6177    -0.1344     2.6134 H            1    LIG   0.0000
  57 H            3.9798     0.6102     2.1064 H            1    LIG   0.0000
  58 H            4.5608    -1.2465     3.4758 H            1    LIG   0.0000
  59 H            3.7201    -2.2441     2.4936 H            1    LIG   0.0000
  60 H            8.6703    -1.8191     1.7715 H            1    LIG   0.0000
  61 H            7.7360    -1.5268     0.4645 H            1    LIG   0.0000
  62 H            7.1984    -3.5409    -1.1235 H            1    LIG   0.0000
  63 H            8.9643    -7.7394     0.7231 H            1    LIG   0.0000
  64 H            9.9143    -7.8955     2.9083 H            1    LIG   0.0000
  65 H           10.0268    -5.9302     4.2876 H            1    LIG   0.0000
  66 H            9.1926    -3.8577     3.4451 H            1    LIG   0.0000
  67 H            5.9273    -1.6522    -0.3204 H            1    LIG   0.0000
  68 H            5.5790    -0.1311     0.1607 H            1    LIG   0.0000
  69 H            3.7952    -0.9639    -1.1781 H            1    LIG   0.0000
  70 H            3.6191    -2.2333    -0.1660 H            1    LIG   0.0000
@<TRIPOS>BOND
   1        1        2 1
   2        2        3 1
   3        2        4 1
   4        4        5 2
   5        4        6 am
   6        6        7 1
   7        7        8 1
   8        8        9 1
   9        9       10 2
  10       10       11 1
  11       11       12 1
  12       12       13 ar
  13       13       14 ar
  14       14       15 ar
  15       15       16 ar
  16       16       17 ar
  17       17        9 1
  18       17       12 ar
  19        7       18 1
  20       18       19 2
  21       18       20 am
  22       20       21 1
  23       21       22 1
  24       22       23 1
  25       23       24 am
  26       24       25 2
  27       24       26 1
  28       26       27 1
  29       27       28 2
  30       28       29 1
  31       29       30 1
  32       30       31 ar
  33       31       32 ar
  34       32       33 ar
  35       33       34 ar
  36       34       35 ar
  37       35       27 1
  38       35       30 ar
  39       23       36 1
  40       36       37 1
  41       37       20 1
  42        7       38 1
  43       11       39 1
  44       29       40 1
  45        1       41 1
  46        1       42 1
  47        1       43 1
  48        2       44 1
  49        3       45 1
  50        3       46 1
  51        3       47 1
  52        6       48 1
  53        8       49 1
  54        8       50 1
  55       10       51 1
  56       13       52 1
  57       14       53 1
  58       15       54 1
  59       16       55 1
  60       21       56 1
  61       21       57 1
  62       22       58 1
  63       22       59 1
  64       26       60 1
  65       26       61 1
  66       28       62 1
  67       31       63 1
  68       32       64 1
  69       33       65 1
  70       34       66 1
  71       36       67 1
  72       36       68 1
  73       37       69 1
  74       37       70 1

@<TRIPOS>MOLECULE

  70   74
SMALL
USER_CHARGES
@<TRIPOS>ATOM
   1 C1           2.3449     2.3449     5.5531 C.3          1    LIG   0.0000
   2 C2           2.6374     2.6374     4.0905 C.3          1    LIG   0.0000
   3 C3           4.1000     2.3449     3.7980 C.3          1    LIG   0.0000
   4 C4           1.7598     1.7598     3.2129 C.2          1    LIG   0.0000
   5 O5           0.9891     0.9891     3.7150 O.2          1    LIG   0.0000
   6 N6           1.8487     1.8487     1.8487 N.am         1    LIG   0.0000
   7 C7           1.0000     1.0000     1.0000 C.3          1    LIG   0.0000
   8 C8           0.1224     1.8776     0.1224 C.3          1    LIG   0.0000
   9 C9          -0.7546     1.0005    -0.7546 C.2          1    LIG   0.0000
  10 C10         -0.4152     0.5508    -1.9950 C.2          1    LIG   0.0000
  11 N11         -1.4673    -0.1922    -2.4393 N.pl3        1    LIG   0.0000
  12 C12         -2.4575    -0.2130    -1.5007 C.ar         1    LIG   0.0000
  13 C13         -3.7085    -0.8204    -1.4808 C.ar         1    LIG   0.0000
  14 C14         -4.5555    -0.6930    -0.3849 C.ar         1    LIG   0.0000
  15 C15         -4.1383     0.0569     0.7098 C.ar         1    LIG   0.0000
  16 C16         -2.8840     0.6583     0.6818 C.ar         1    LIG   0.0000
  17 C17         -2.0431     0.5244    -0.4184 C.ar         1    LIG   0.0000
  18 C18          1.8776     0.1224     0.1224 C.2          1    LIG   0.0000
  19 O19          1.5740    -0.0766    -1.0213 O.2          1    LIG   0.0000
  20 N20          3.0395    -0.4533     0.6483 N.am         1    LIG   0.0000
  21 C21          3.4357    -0.2267     2.0457 C.3          1    LIG   0.0000
  22 C22          4.2617    -1.4045     2.5348 C.3          1    LIG   0.0000
  23 N23          5.4272    -1.5125     1.6469 N.am         1    LIG   0.0000
  24 C24          6.6361    -1.9881     2.1678 C.2          1    LIG   0.0000
  25 O25          7.5990    -2.0834     1.4581 O.2          1    LIG   0.0000
  26 C26          6.7292    -2.3839     3.6324 C.3          1    LIG   0.0000
  27 C27          6.6241    -3.8942     3.7564 C.2          1    LIG   0.0000
  28 C28          5.4946    -4.5713     4.1055 C.2          1    LIG   0.0000
  29 N29          5.8200    -5.8943     4.1055 N.pl3        1    LIG   0.0000
  30 C30          7.1315    -6.0555     3.7652 C.ar         1    LIG   0.0000
  31 C31          7.9252    -7.1896     3.6291 C.ar         1    LIG   0.0000
  32 C32          9.2638    -7.0943     3.2635 C.ar         1    LIG   0.0000
  33 C33          9.8142    -5.8384     3.0301 C.ar         1    LIG   0.0000
  34 C34          9.0116    -4.7101     3.1658 C.ar         1    LIG   0.0000
  35 C35          7.6733    -4.8153     3.5309 C.ar         1    LIG   0.0000
  36 C36          5.3185    -1.0931     0.2423 C.3          1    LIG   0.0000
  37 C37          3.8853    -1.2716    -0.2309 C.3          1    LIG   0.0000
  38 H            0.4226     0.4226     1.5774 H            1    LIG   0.0000
  39 H           -1.5079    -0.6552    -3.3247 H            1    LIG   0.0000
  40 H            5.1892    -6.6391     4.3232 H            1    LIG   0.0000
  41 H            2.9222     2.9222     6.1305 H            1    LIG   0.0000
  42 H            1.3826     2.5373     5.7456 H            1    LIG   0.0000
  43 H            2.5373     1.3826     5.7456 H            1    LIG   0.0000
  44 H            2.4449     3.5996     3.8980 H            1    LIG   0.0000
  45 H            4.6774     2.9222     4.3753 H            1    LIG   0.0000
  46 H            4.2925     1.3826     3.9904 H            1    LIG   0.0000
  47 H            4.2925     2.5373     2.8357 H            1    LIG   0.0000
  48 H            2.4909     2.4909     1.4303 H            1    LIG   0.0000
  49 H           -0.4549     2.4549     0.6998 H            1    LIG   0.0000
  50 H            0.6998     2.4549    -0.4549 H            1    LIG   0.0000
  51 H            0.4385     0.7308    -2.4836 H            1    LIG   0.0000
  52 H           -4.0047    -1.3591    -2.2695 H            1    LIG   0.0000
  53 H           -5.4526    -1.1348    -0.3840 H            1    LIG   0.0000
  54 H           -4.7326     0.1626     1.5070 H            1    LIG   0.0000
  55 H           -2.5811     1.1972     1.4678 H            1    LIG   0.0000
  56 H            2.6177    -0.1344     2.6134 H            1    LIG   0.0000
  57 H            3.9798     0.6102     2.1064 H            1    LIG   0.0000
  58 H            4.5608    -1.2465     3.4758 H            1    LIG   0.0000
  59 H            3.7201    -2.2441     2.4936 H            1    LIG   0.0000
  60 H            5.9832    -1.9549     4.1417 H            1    LIG   0.0000
  61 H            7.6057    -2.0790     4.0050 H            1    LIG   0.0000
  62 H            4.6018    -4.1750     4.3197 H            1    LIG   0.0000
  63 H            7.5257    -8.0908     3.7974 H            1    LIG   0.0000
  64 H            9.8231    -7.9179     3.1698 H            1    LIG   0.0000
  65 H           10.7749    -5.7476     2.7679 H            1    LIG   0.0000
  66 H            9.4044    -3.8060     2.9976 H            1    LIG   0.0000
  67 H            5.9273    -1.6522    -0.3204 H            1    LIG   0.0000
  68 H            5.5790    -0.1311     0.1607 H            1    LIG   0.0000
  69 H            3.7952    -0.9639    -1.1781 H            1    LIG   0.0000
  70 H            3.6191    -2.2333    -0.1660 H            1    LIG   0.0000
@<TRIPOS>BOND
   1        1        2 1
   2        2        3 1
   3        2        4 1
   4        4        5 2
   5        4        6 am
   6        6        7 1
   7        7        8 1
   8        8        9 1
   9        9       10 2
  10       10       11 1
  11       11       12 1
  12       12       13 ar
  13       13       14 ar
  14       14       15 ar
  15       15       16 ar
  16       16       17 ar
  17       17        9 1
  18       17       12 ar
  19        7       18 1
  20       18       19 2
  21       18       20 am
  22       20       21 1
  23       21       22 1
  24       22       23 1
  25       23       24 am
  26       24       25 2
  27       24       26 1
  28       26       27 1
  29       27       28 2
  30       28       29 1
  31       29       30 1
  32       30       31 ar
  33       31       32 ar
  34       32       33 ar
  35       33       34 ar
  36       34       35 ar
  37       35       27 1
  38       35       30 ar
  39       23       36 1
  40       36       37 1
  41       37       20 1
  42        7       38 1
  43       11       39 1
  44       29       40 1
  45        1       41 1
  46        1       42 1
  47        1       43 1
  48        2       44 1
  49        3       45 1
  50        3       46 1
  51        3       47 1
  52        6       48 1
  53        8       49 1
  54        8       50 1
  55       10       51 1
  56       13       52 1
  57       14       53 1
  58       15       54 1
  59       16       55 1
  60       21       56 1
  61       21       57 1
  62       22       58 1
  63       22       59 1
  64       26       60 1
  65       26       61 1
  66       28       62 1
  67       31       63 1
  68       32       64 1
  69       33       65 1
  70       34       66 1
  71       36       67 1
  72       36       68 1
  73       37       69 1
  74       37       70 1

@<TRIPOS>MOLECULE

  70   74
SMALL
USER_CHARGES
@<TRIPOS>ATOM
   1 C1           2.3449     2.3449     5.5531 C.3          1    LIG   0.0000
   2 C2           2.6374     2.6374     4.0905 C.3          1    LIG   0.0000
   3 C3           4.1000     2.3449     3.7980 C.3          1    LIG   0.0000
   4 C4           1.7598     1.7598     3.2129 C.2          1    LIG   0.0000
   5 O5           0.9891     0.9891     3.7150 O.2          1    LIG   0.0000
   6 N6           1.8487     1.8487     1.8487 N.am         1    LIG   0.0000
   7 C7           1.0000     1.0000     1.0000 C.3          1    LIG   0.0000
   8 C8           0.1224     1.8776     0.1224 C.3          1    LIG   0.0000
   9 C9          -0.7546     1.0005    -0.7546 C.2          1    LIG   0.0000
  10 C10         -0.4152     0.5508    -1.9950 C.2          1    LIG   0.0000
  11 N11         -1.4673    -0.1922    -2.4393 N.pl3        1    LIG   0.0000
  12 C12         -2.4575    -0.2130    -1.5007 C.ar         1    LIG   0.0000
  13 C13         -3.7085    -0.8204    -1.4808 C.ar         1    LIG   0.0000
  14 C14         -4.5555    -0.6930    -0.3849 C.ar         1    LIG   0.0000
  15 C15         -4.1383     0.0569     0.7098 C.ar         1    LIG   0.0000
  16 C16         -2.8840     0.6583     0.6818 C.ar         1    LIG   0.0000
  17 C17         -2.0431     0.5244    -0.4184 C.ar         1    LIG   0.0000
  18 C18          1.8776     0.1224     0.1224 C.2          1    LIG   0.0000
  19 O19          1.5740    -0.0766    -1.0213 O.2          1    LIG   0.0000
  20 N20          3.0395    -0.4533     0.6483 N.am         1    LIG   0.0000
  21 C21          3.4357    -0.2267     2.0457 C.3          1    LIG   0.0000
  22 C22          4.2617    -1.4045     2.5348 C.3          1    LIG   0.0000
  23 N23          5.4272    -1.5125     1.6469 N.am         1    LIG   0.0000
  24 C24          6.6361    -1.9881     2.1678 C.2          1    LIG   0.0000
  25 O25          7.5990    -2.0834     1.4581 O.2          1    LIG   0.0000
  26 C26          6.7292    -2.3839     3.6324 C.3          1    LIG   0.0000
  27 C27          7.3749    -1.2576     4.4212 C.2          1    LIG   0.0000
  28 C28          6.6984    -0.3427     5.1704 C.2          1    LIG   0.0000
  29 N29          7.6354     0.4889     5.7058 N.pl3        1    LIG   0.0000
  30 C30          8.8834     0.1117     5.3033 C.ar         1    LIG   0.0000
  31 C31         10.1450     0.6321     5.5718 C.ar         1    LIG   0.0000
  32 C32         11.2920     0.0589     5.0330 C.ar         1    LIG   0.0000
  33 C33         11.1695    -1.0565     4.2110 C.ar         1    LIG   0.0000
  34 C34          9.9037    -1.5716     3.9505 C.ar         1    LIG   0.0000
  35 C35          8.7620    -0.9921     4.4949 C.ar         1    LIG   0.0000
  36 C36          5.3185    -1.0931     0.2423 C.3          1    LIG   0.0000
  37 C37          3.8853    -1.2716    -0.2309 C.3          1    LIG   0.0000
  38 H            0.4226     0.4226     1.5774 H            1    LIG   0.0000
  39 H           -1.5079    -0.6552    -3.3247 H            1    LIG   0.0000
  40 H            7.4373     1.2634     6.3067 H            1    LIG   0.0000
  41 H            2.9222     2.9222     6.1305 H            1    LIG   0.0000
  42 H            1.3826     2.5373     5.7456 H            1    LIG   0.0000
  43 H            2.5373     1.3826     5.7456 H            1    LIG   0.0000
  44 H            2.4449     3.5996     3.8980 H            1    LIG   0.0000
  45 H            4.6774     2.9222     4.3753 H            1    LIG   0.0000
  46 H            4.2925     1.3826     3.9904 H            1    LIG   0.0000
  47 H            4.2925     2.5373     2.8357 H            1    LIG   0.0000
  48 H            2.4909     2.4909     1.4303 H            1    LIG   0.0000
  49 H           -0.4549     2.4549     0.6998 H            1    LIG   0.0000
  50 H            0.6998     2.4549    -0.4549 H            1    LIG   0.0000
  51 H            0.4385     0.7308    -2.4836 H            1    LIG   0.0000
  52 H           -4.0047    -1.3591    -2.2695 H            1    LIG   0.0000
  53 H           -5.4526    -1.1348    -0.3840 H            1    LIG   0.0000
  54 H           -4.7326     0.1626     1.5070 H            1    LIG   0.0000
  55 H           -2.5811     1.1972     1.4678 H            1    LIG   0.0000
  56 H            2.6177    -0.1344     2.6134 H            1    LIG   0.0000
  57 H            3.9798     0.6102     2.1064 H            1    LIG   0.0000
  58 H            4.5608    -1.2465     3.4758 H            1    LIG   0.0000
  59 H            3.7201    -2.2441     2.4936 H            1    LIG   0.0000
  60 H            7.2831    -3.2119     3.7193 H            1    LIG   0.0000
  61 H            5.8115    -2.5577     3.9897 H            1    LIG   0.0000
  62 H            5.7084    -0.2916     5.3016 H            1    LIG   0.0000
  63 H           10.2290     1.4338     6.1636 H            1    LIG   0.0000
  64 H           12.1929     0.4435     5.2340 H            1    LIG   0.0000
  65 H           11.9814    -1.4828     3.8120 H            1    LIG   0.0000
  66 H            9.8127    -2.3740     3.3607 H            1    LIG   0.0000
  67 H            5.9273    -1.6522    -0.3204 H            1    LIG   0.0000
  68 H            5.5790    -0.1311     0.1607 H            1    LIG   0.0000
  69 H            3.7952    -0.9639    -1.1781 H            1    LIG   0.0000
  70 H            3.6191    -2.2333    -0.1660 H            1    LIG   0.0000
@<TRIPOS>BOND
   1        1        2 1
   2        2        3 1
   3        2        4 1
   4        4        5 2
   5        4        6 am
   6        6        7 1
   7        7        8 1
   8        8        9 1
   9        9       10 2
  10       10       11 1
  11       11       12 1
  12       12       13 ar
  13       13       14 ar
  14       14       15 ar
  15       15       16 ar
  16       16       17 ar
  17       17        9 1
  18       17       12 ar
  19        7       18 1
  20       18       19 2
  21       18       20 am
  22       20       21 1
  23       21       22 1
  24       22       23 1
  25       23       24 am
  26       24       25 2
  27       24       26 1
  28       26       27 1
  29       27       28 2
  30       28       29 1
  31       29       30 1
  32       30       31 ar
  33       31       32 ar
  34       32       33 ar
  35       33       34 ar
  36       34       35 ar
  37       35       27 1
  38       35       30 ar
  39       23       36 1
  40       36       37 1
  41       37       20 1
  42        7       38 1
  43       11       39 1
  44       29       40 1
  45        1       41 1
  46        1       42 1
  47        1       43 1
  48        2       44 1
  49        3       45 1
  50        3       46 1
  51        3       47 1
  52        6       48 1
  53        8       49 1
  54        8       50 1
  55       10       51 1
  56       13       52 1
  57       14       53 1
  58       15       54 1
  59       16       55 1
  60       21       56 1
  61       21       57 1
  62       22       58 1
  63       22       59 1
  64       26       60 1
  65       26       61 1
  66       28       62 1
  67       31       63 1
  68       32       64 1
  69       33       65 1
  70       34       66 1
  71       36       67 1
  72       36       68 1
  73       37       69 1
  74       37       70 1

