@<TRIPOS>MOLECULE
*****
 70 74 0 0 0
SMALL
USER_CHARGES

@<TRIPOS>ATOM
      1 C1          2.3449    2.3449    5.5531 C.3     1  LIG1        0.0000
      2 C2          2.6374    2.6374    4.0905 C.3     1  LIG1        0.0000
      3 C3          4.1000    2.3449    3.7980 C.3     1  LIG1        0.0000
      4 C4          1.7598    1.7598    3.2129 C.2     1  LIG1        0.0000
      5 O5          0.9891    0.9891    3.7150 O.2     1  LIG1        0.0000
      6 N6          1.8487    1.8487    1.8487 N.am    1  LIG1        0.0000
      7 C7          1.0000    1.0000    1.0000 C.3     1  LIG1        0.0000
      8 C8          0.1224    1.8776    0.1224 C.3     1  LIG1        0.0000
      9 C9         -0.7546    1.0005   -0.7546 C.2     1  LIG1        0.0000
     10 C10        -0.4152    0.5508   -1.9950 C.2     1  LIG1        0.0000
     11 N11        -1.4673   -0.1922   -2.4393 N.pl3   1  LIG1        0.0000
     12 C12        -2.4575   -0.2130   -1.5007 C.3     1  LIG1        0.0000
     13 C13        -3.7085   -0.8204   -1.4808 C.3     1  LIG1        0.0000
     14 C14        -4.5555   -0.6930   -0.3849 C.3     1  LIG1        0.0000
     15 C15        -4.1383    0.0569    0.7098 C.3     1  LIG1        0.0000
     16 C16        -2.8840    0.6583    0.6818 C.3     1  LIG1        0.0000
     17 C17        -2.0431    0.5244   -0.4184 C.3     1  LIG1        0.0000
     18 C18         1.8776    0.1224    0.1224 C.2     1  LIG1        0.0000
     19 O19         1.5740   -0.0766   -1.0213 O.2     1  LIG1        0.0000
     20 N20         3.0395   -0.4533    0.6483 N.am    1  LIG1        0.0000
     21 C21         3.9068   -1.3062   -0.1772 C.3     1  LIG1        0.0000
     22 C22         5.3299   -1.2428    0.3515 C.3     1  LIG1        0.0000
     23 N23         5.2913   -1.6932    1.7493 N.am    1  LIG1        0.0000
     24 C24         6.3995   -2.3658    2.2771 C.2     1  LIG1        0.0000
     25 O25         6.3866   -2.7413    3.4167 O.2     1  LIG1        0.0000
     26 C26         7.6192   -2.6206    1.4066 C.3     1  LIG1        0.0000
     27 C27         7.5866   -4.0506    0.8953 C.2     1  LIG1        0.0000
     28 C28         7.1726   -4.4252   -0.3475 C.2     1  LIG1        0.0000
     29 N29         7.2936   -5.7811   -0.4041 N.pl3   1  LIG1        0.0000
     30 C30         7.7731   -6.2599    0.7803 C.3     1  LIG1        0.0000
     31 C31         8.0631   -7.5491    1.2140 C.3     1  LIG1        0.0000
     32 C32         8.5533   -7.7872    2.4937 C.3     1  LIG1        0.0000
     33 C33         8.7560   -6.7116    3.3520 C.3     1  LIG1        0.0000
     34 C34         8.4658   -5.4254    2.9083 C.3     1  LIG1        0.0000
     35 C35         7.9768   -5.1968    1.6260 C.3     1  LIG1        0.0000
     36 C36         4.0870   -1.4620    2.5597 C.3     1  LIG1        0.0000
     37 C37         3.3705   -0.2182    2.0600 C.3     1  LIG1        0.0000
     38 H           0.4226    0.4226    1.5774 H       1  LIG1        0.0000
     39 H          -1.5079   -0.6552   -3.3247 H       1  LIG1        0.0000
     40 H           7.0643   -6.3437   -1.1983 H       1  LIG1        0.0000
     41 H           2.9222    2.9222    6.1305 H       1  LIG1        0.0000
     42 H           1.3826    2.5373    5.7456 H       1  LIG1        0.0000
     43 H           2.5373    1.3826    5.7456 H       1  LIG1        0.0000
     44 H           2.4449    3.5996    3.8980 H       1  LIG1        0.0000
     45 H           4.6774    2.9222    4.3753 H       1  LIG1        0.0000
     46 H           4.2925    1.3826    3.9904 H       1  LIG1        0.0000
     47 H           4.2925    2.5373    2.8357 H       1  LIG1        0.0000
     48 H           2.4909    2.4909    1.4303 H       1  LIG1        0.0000
     49 H          -0.4549    2.4549    0.6998 H       1  LIG1        0.0000
     50 H           0.6998    2.4549   -0.4549 H       1  LIG1        0.0000
     51 H           0.4385    0.7308   -2.4836 H       1  LIG1        0.0000
     52 H          -4.0047   -1.3591   -2.2695 H       1  LIG1        0.0000
     53 H          -5.4526   -1.1348   -0.3840 H       1  LIG1        0.0000
     54 H          -4.7326    0.1626    1.5070 H       1  LIG1        0.0000
     55 H          -2.5811    1.1972    1.4678 H       1  LIG1        0.0000
     56 H           3.8881   -0.9838   -1.1237 H       1  LIG1        0.0000
     57 H           3.5791   -2.2502   -0.1401 H       1  LIG1        0.0000
     58 H           5.9226   -1.8427   -0.1860 H       1  LIG1        0.0000
     59 H           5.6727   -0.3047    0.3026 H       1  LIG1        0.0000
     60 H           8.4492   -2.4783    1.9460 H       1  LIG1        0.0000
     61 H           7.6132   -1.9891    0.6313 H       1  LIG1        0.0000
     62 H           6.8444   -3.8231   -1.0753 H       1  LIG1        0.0000
     63 H           7.9165   -8.3198    0.5938 H       1  LIG1        0.0000
     64 H           8.7573   -8.7193    2.7927 H       1  LIG1        0.0000
     65 H           9.1060   -6.8610    4.2768 H       1  LIG1        0.0000
     66 H           8.6114   -4.6501    3.5228 H       1  LIG1        0.0000
     67 H           4.3486   -1.3341    3.5163 H       1  LIG1        0.0000
     68 H           3.4774   -2.2510    2.4833 H       1  LIG1        0.0000
     69 H           2.5350   -0.0672    2.5884 H       1  LIG1        0.0000
     70 H           3.9673    0.5797    2.1448 H       1  LIG1        0.0000
@<TRIPOS>BOND
     1     1     2    1
     2     2     3    1
     3     2     4    1
     4     4     5    2
     5     4     6   am
     6     6     7    1
     7     7     8    1
     8     8     9    1
     9     9    10    2
    10    10    11    1
    11    11    12    1
    12    12    13   ar
    13    13    14   ar
    14    14    15   ar
    15    15    16   ar
    16    16    17   ar
    17    17     9    1
    18    17    12   ar
    19     7    18    1
    20    18    19    2
    21    18    20   am
    22    20    21    1
    23    21    22    1
    24    22    23    1
    25    23    24   am
    26    24    25    2
    27    24    26    1
    28    26    27    1
    29    27    28    2
    30    28    29    1
    31    29    30    1
    32    30    31   ar
    33    31    32   ar
    34    32    33   ar
    35    33    34   ar
    36    34    35   ar
    37    35    27    1
    38    35    30   ar
    39    23    36    1
    40    36    37    1
    41    37    20    1
    42     7    38    1
    43    11    39    1
    44    29    40    1
    45     1    41    1
    46     1    42    1
    47     1    43    1
    48     2    44    1
    49     3    45    1
    50     3    46    1
    51     3    47    1
    52     6    48    1
    53     8    49    1
    54     8    50    1
    55    10    51    1
    56    13    52    1
    57    14    53    1
    58    15    54    1
    59    16    55    1
    60    21    56    1
    61    21    57    1
    62    22    58    1
    63    22    59    1
    64    26    60    1
    65    26    61    1
    66    28    62    1
    67    31    63    1
    68    32    64    1
    69    33    65    1
    70    34    66    1
    71    36    67    1
    72    36    68    1
    73    37    69    1
    74    37    70    1
