@<TRIPOS>MOLECULE
*****
 70 74 0 0 0
SMALL
USER_CHARGES

@<TRIPOS>ATOM
      1 C1          2.3449    2.3449    5.5531 C.3     1  LIG1        0.0000
      2 C2          2.6374    2.6374    4.0905 C.3     1  LIG1        0.0000
      3 C3          4.1000    2.3449    3.7980 C.3     1  LIG1        0.0000
      4 C4          1.7598    1.7598    3.2129 C.2     1  LIG1        0.0000
      5 O5          0.9891    0.9891    3.7150 O.2     1  LIG1        0.0000
      6 N6          1.8487    1.8487    1.8487 N.am    1  LIG1        0.0000
      7 C7          1.0000    1.0000    1.0000 C.3     1  LIG1        0.0000
      8 C8          0.1224    1.8776    0.1224 C.3     1  LIG1        0.0000
      9 C9         -0.7546    1.0005   -0.7546 C.2     1  LIG1        0.0000
     10 C10        -0.4152    0.5508   -1.9950 C.2     1  LIG1        0.0000
     11 N11        -1.4673   -0.1922   -2.4393 N.pl3   1  LIG1        0.0000
     12 C12        -2.4575   -0.2130   -1.5007 C.3     1  LIG1        0.0000
     13 C13        -3.7085   -0.8204   -1.4808 C.3     1  LIG1        0.0000
     14 C14        -4.5555   -0.6930   -0.3849 C.3     1  LIG1        0.0000
     15 C15        -4.1383    0.0569    0.7098 C.3     1  LIG1        0.0000
     16 C16        -2.8840    0.6583    0.6818 C.3     1  LIG1        0.0000
     17 C17        -2.0431    0.5244   -0.4184 C.3     1  LIG1        0.0000
     18 C18         1.8776    0.1224    0.1224 C.2     1  LIG1        0.0000
     19 O19         1.5740   -0.0766   -1.0213 O.2     1  LIG1        0.0000
     20 N20         3.0395   -0.4533    0.6483 N.am    1  LIG1        0.0000
     21 C21         3.4357   -0.2267    2.0457 C.3     1  LIG1        0.0000
     22 C22         4.2617   -1.4045    2.5348 C.3     1  LIG1        0.0000
     23 N23         5.4272   -1.5125    1.6469 N.am    1  LIG1        0.0000
     24 C24         6.6361   -1.9881    2.1678 C.2     1  LIG1        0.0000
     25 O25         6.7096   -2.3006    3.3240 O.2     1  LIG1        0.0000
     26 C26         7.8558   -2.1088    1.2688 C.3     1  LIG1        0.0000
     27 C27         8.0195   -3.5535    0.8288 C.2     1  LIG1        0.0000
     28 C28         7.6313   -4.0495   -0.3792 C.2     1  LIG1        0.0000
     29 N29         7.9484   -5.3745   -0.3743 N.pl3   1  LIG1        0.0000
     30 C30         8.5251   -5.7152    0.8145 C.3     1  LIG1        0.0000
     31 C31         9.0131   -6.9238    1.2998 C.3     1  LIG1        0.0000
     32 C32         9.5676   -7.0200    2.5717 C.3     1  LIG1        0.0000
     33 C33         9.6335   -5.8824    3.3694 C.3     1  LIG1        0.0000
     34 C34         9.1456   -4.6773    2.8742 C.3     1  LIG1        0.0000
     35 C35         8.5936   -4.5905    1.6001 C.3     1  LIG1        0.0000
     36 C36         5.3185   -1.0931    0.2423 C.3     1  LIG1        0.0000
     37 C37         3.8853   -1.2716   -0.2309 C.3     1  LIG1        0.0000
     38 H           0.4226    0.4226    1.5774 H       1  LIG1        0.0000
     39 H          -1.5079   -0.6552   -3.3247 H       1  LIG1        0.0000
     40 H           7.7826   -6.0058   -1.1319 H       1  LIG1        0.0000
     41 H           2.9222    2.9222    6.1305 H       1  LIG1        0.0000
     42 H           1.3826    2.5373    5.7456 H       1  LIG1        0.0000
     43 H           2.5373    1.3826    5.7456 H       1  LIG1        0.0000
     44 H           2.4449    3.5996    3.8980 H       1  LIG1        0.0000
     45 H           4.6774    2.9222    4.3753 H       1  LIG1        0.0000
     46 H           4.2925    1.3826    3.9904 H       1  LIG1        0.0000
     47 H           4.2925    2.5373    2.8357 H       1  LIG1        0.0000
     48 H           2.4909    2.4909    1.4303 H       1  LIG1        0.0000
     49 H          -0.4549    2.4549    0.6998 H       1  LIG1        0.0000
     50 H           0.6998    2.4549   -0.4549 H       1  LIG1        0.0000
     51 H           0.4385    0.7308   -2.4836 H       1  LIG1        0.0000
     52 H          -4.0047   -1.3591   -2.2695 H       1  LIG1        0.0000
     53 H          -5.4526   -1.1348   -0.3840 H       1  LIG1        0.0000
     54 H          -4.7326    0.1626    1.5070 H       1  LIG1        0.0000
     55 H          -2.5811    1.1972    1.4678 H       1  LIG1        0.0000
     56 H           2.6177   -0.1344    2.6134 H       1  LIG1        0.0000
     57 H           3.9798    0.6102    2.1064 H       1  LIG1        0.0000
     58 H           4.5608   -1.2465    3.4758 H       1  LIG1        0.0000
     59 H           3.7201   -2.2441    2.4936 H       1  LIG1        0.0000
     60 H           8.6703   -1.8191    1.7715 H       1  LIG1        0.0000
     61 H           7.7360   -1.5268    0.4645 H       1  LIG1        0.0000
     62 H           7.1984   -3.5409   -1.1235 H       1  LIG1        0.0000
     63 H           8.9643   -7.7394    0.7231 H       1  LIG1        0.0000
     64 H           9.9143   -7.8955    2.9083 H       1  LIG1        0.0000
     65 H          10.0268   -5.9302    4.2876 H       1  LIG1        0.0000
     66 H           9.1926   -3.8577    3.4451 H       1  LIG1        0.0000
     67 H           5.9273   -1.6522   -0.3204 H       1  LIG1        0.0000
     68 H           5.5790   -0.1311    0.1607 H       1  LIG1        0.0000
     69 H           3.7952   -0.9639   -1.1781 H       1  LIG1        0.0000
     70 H           3.6191   -2.2333   -0.1660 H       1  LIG1        0.0000
@<TRIPOS>BOND
     1     1     2    1
     2     2     3    1
     3     2     4    1
     4     4     5    2
     5     4     6   am
     6     6     7    1
     7     7     8    1
     8     8     9    1
     9     9    10    2
    10    10    11    1
    11    11    12    1
    12    12    13   ar
    13    13    14   ar
    14    14    15   ar
    15    15    16   ar
    16    16    17   ar
    17    17     9    1
    18    17    12   ar
    19     7    18    1
    20    18    19    2
    21    18    20   am
    22    20    21    1
    23    21    22    1
    24    22    23    1
    25    23    24   am
    26    24    25    2
    27    24    26    1
    28    26    27    1
    29    27    28    2
    30    28    29    1
    31    29    30    1
    32    30    31   ar
    33    31    32   ar
    34    32    33   ar
    35    33    34   ar
    36    34    35   ar
    37    35    27    1
    38    35    30   ar
    39    23    36    1
    40    36    37    1
    41    37    20    1
    42     7    38    1
    43    11    39    1
    44    29    40    1
    45     1    41    1
    46     1    42    1
    47     1    43    1
    48     2    44    1
    49     3    45    1
    50     3    46    1
    51     3    47    1
    52     6    48    1
    53     8    49    1
    54     8    50    1
    55    10    51    1
    56    13    52    1
    57    14    53    1
    58    15    54    1
    59    16    55    1
    60    21    56    1
    61    21    57    1
    62    22    58    1
    63    22    59    1
    64    26    60    1
    65    26    61    1
    66    28    62    1
    67    31    63    1
    68    32    64    1
    69    33    65    1
    70    34    66    1
    71    36    67    1
    72    36    68    1
    73    37    69    1
    74    37    70    1
