@<TRIPOS>MOLECULE

  36   37
SMALL
USER_CHARGES
@<TRIPOS>ATOM
   1 C1          -3.8466     3.1288     2.6308 C.3          1    LIG   0.0000
   2 C2          -3.1605     2.9037     1.2931 C.ar         1    LIG   0.0000
   3 C3          -3.7691     3.3449     0.1226 C.ar         1    LIG   0.0000
   4 C4          -3.1397     3.1375    -1.1005 C.ar         1    LIG   0.0000
   5 C5          -1.9078     2.4918    -1.1485 C.ar         1    LIG   0.0000
   6 C6          -1.2501     2.2832    -2.5032 C.3          1    LIG   0.0000
   7 O7          -1.6675     1.0390    -3.0456 O.3          1    LIG   0.0000
   8 C8          -1.3052     2.0536     0.0274 C.ar         1    LIG   0.0000
   9 C9          -0.0219     1.3779     0.0110 C.ar         1    LIG   0.0000
  10 C10         -0.0078    -0.0133    -0.0010 C.ar         1    LIG   0.0000
  11 C11          1.2039    -0.6963    -0.0161 C.ar         1    LIG   0.0000
  12 C12          2.3938     0.0246    -0.0201 C.ar         1    LIG   0.0000
  13 C13          3.7226    -0.7135    -0.0371 C.3          1    LIG   0.0000
  14 O14          4.1251    -0.9327    -1.3812 O.3          1    LIG   0.0000
  15 C15          2.3875     1.4158    -0.0090 C.ar         1    LIG   0.0000
  16 C16          1.1722     2.0926     0.0062 C.ar         1    LIG   0.0000
  17 C17          1.1885     3.6127     0.0182 C.3          1    LIG   0.0000
  18 C18         -1.9293     2.2576     1.2539 C.ar         1    LIG   0.0000
  19 H           -4.7151     3.6024     2.4845 H            1    LIG   0.0000
  20 H           -4.0177     2.2469     3.0702 H            1    LIG   0.0000
  21 H           -3.2583     3.6851     3.2177 H            1    LIG   0.0000
  22 H           -4.6542     3.8087     0.1602 H            1    LIG   0.0000
  23 H           -3.5724     3.4523    -1.9452 H            1    LIG   0.0000
  24 H           -1.5175     3.0227    -3.1210 H            1    LIG   0.0000
  25 H           -0.2560     2.2827    -2.3946 H            1    LIG   0.0000
  26 H           -1.2349     0.9019    -3.9367 H            1    LIG   0.0000
  27 H           -0.8687    -0.5222     0.0013 H            1    LIG   0.0000
  28 H            1.2196    -1.6961    -0.0241 H            1    LIG   0.0000
  29 H            4.4144    -0.1653     0.4328 H            1    LIG   0.0000
  30 H            3.6214    -1.5929     0.4282 H            1    LIG   0.0000
  31 H            4.9992    -1.4183    -1.3924 H            1    LIG   0.0000
  32 H            3.2484     1.9245    -0.0119 H            1    LIG   0.0000
  33 H            2.1348     3.9359     0.0125 H            1    LIG   0.0000
  34 H            0.7136     3.9575    -0.7915 H            1    LIG   0.0000
  35 H            0.7279     3.9445     0.8414 H            1    LIG   0.0000
  36 H           -1.4971     1.9428     2.0990 H            1    LIG   0.0000
@<TRIPOS>BOND
   1        1        2 1
   2        2        3 ar
   3        3        4 ar
   4        4        5 ar
   5        5        6 1
   6        6        7 1
   7        5        8 ar
   8        8        9 1
   9        9       10 ar
  10       10       11 ar
  11       11       12 ar
  12       12       13 1
  13       13       14 1
  14       12       15 ar
  15       15       16 ar
  16       16        9 ar
  17       16       17 1
  18        8       18 ar
  19       18        2 ar
  20        1       19 1
  21        1       20 1
  22        1       21 1
  23        3       22 1
  24        4       23 1
  25        6       24 1
  26        6       25 1
  27        7       26 1
  28       10       27 1
  29       11       28 1
  30       13       29 1
  31       13       30 1
  32       14       31 1
  33       15       32 1
  34       17       33 1
  35       17       34 1
  36       17       35 1
  37       18       36 1

@<TRIPOS>MOLECULE

  36   37
SMALL
USER_CHARGES
@<TRIPOS>ATOM
   1 C1          -3.8466     3.1288     2.6308 C.3          1    LIG   0.0000
   2 C2          -3.1605     2.9037     1.2931 C.ar         1    LIG   0.0000
   3 C3          -3.7691     3.3449     0.1226 C.ar         1    LIG   0.0000
   4 C4          -3.1397     3.1375    -1.1005 C.ar         1    LIG   0.0000
   5 C5          -1.9078     2.4918    -1.1485 C.ar         1    LIG   0.0000
   6 C6          -1.2501     2.2832    -2.5032 C.3          1    LIG   0.0000
   7 O7          -1.6675     1.0390    -3.0456 O.3          1    LIG   0.0000
   8 C8          -1.3052     2.0536     0.0274 C.ar         1    LIG   0.0000
   9 C9          -0.0219     1.3779     0.0110 C.ar         1    LIG   0.0000
  10 C10         -0.0078    -0.0133    -0.0010 C.ar         1    LIG   0.0000
  11 C11          1.2039    -0.6963    -0.0161 C.ar         1    LIG   0.0000
  12 C12          2.3938     0.0246    -0.0201 C.ar         1    LIG   0.0000
  13 C13          3.7226    -0.7135    -0.0371 C.3          1    LIG   0.0000
  14 O14          4.1476    -0.9540     1.2962 O.3          1    LIG   0.0000
  15 C15          2.3875     1.4158    -0.0090 C.ar         1    LIG   0.0000
  16 C16          1.1722     2.0926     0.0062 C.ar         1    LIG   0.0000
  17 C17          1.1885     3.6127     0.0182 C.3          1    LIG   0.0000
  18 C18         -1.9293     2.2576     1.2539 C.ar         1    LIG   0.0000
  19 H           -4.7151     3.6024     2.4845 H            1    LIG   0.0000
  20 H           -4.0177     2.2469     3.0702 H            1    LIG   0.0000
  21 H           -3.2583     3.6851     3.2177 H            1    LIG   0.0000
  22 H           -4.6542     3.8087     0.1602 H            1    LIG   0.0000
  23 H           -3.5724     3.4523    -1.9452 H            1    LIG   0.0000
  24 H           -1.5175     3.0227    -3.1210 H            1    LIG   0.0000
  25 H           -0.2560     2.2827    -2.3946 H            1    LIG   0.0000
  26 H           -1.2349     0.9019    -3.9367 H            1    LIG   0.0000
  27 H           -0.8687    -0.5222     0.0013 H            1    LIG   0.0000
  28 H            1.2196    -1.6961    -0.0241 H            1    LIG   0.0000
  29 H            3.6135    -1.5854    -0.5146 H            1    LIG   0.0000
  30 H            4.4065    -0.1579    -0.5099 H            1    LIG   0.0000
  31 H            5.0217    -1.4395     1.2850 H            1    LIG   0.0000
  32 H            3.2484     1.9245    -0.0119 H            1    LIG   0.0000
  33 H            2.1348     3.9359     0.0125 H            1    LIG   0.0000
  34 H            0.7136     3.9575    -0.7915 H            1    LIG   0.0000
  35 H            0.7279     3.9445     0.8414 H            1    LIG   0.0000
  36 H           -1.4971     1.9428     2.0990 H            1    LIG   0.0000
@<TRIPOS>BOND
   1        1        2 1
   2        2        3 ar
   3        3        4 ar
   4        4        5 ar
   5        5        6 1
   6        6        7 1
   7        5        8 ar
   8        8        9 1
   9        9       10 ar
  10       10       11 ar
  11       11       12 ar
  12       12       13 1
  13       13       14 1
  14       12       15 ar
  15       15       16 ar
  16       16        9 ar
  17       16       17 1
  18        8       18 ar
  19       18        2 ar
  20        1       19 1
  21        1       20 1
  22        1       21 1
  23        3       22 1
  24        4       23 1
  25        6       24 1
  26        6       25 1
  27        7       26 1
  28       10       27 1
  29       11       28 1
  30       13       29 1
  31       13       30 1
  32       14       31 1
  33       15       32 1
  34       17       33 1
  35       17       34 1
  36       17       35 1
  37       18       36 1

@<TRIPOS>MOLECULE

  36   37
SMALL
USER_CHARGES
@<TRIPOS>ATOM
   1 C1          -3.8910     3.1691    -2.5145 C.3          1    LIG   0.0000
   2 C2          -3.1822     2.9227    -1.1925 C.ar         1    LIG   0.0000
   3 C3          -3.7707     3.3449    -0.0048 C.ar         1    LIG   0.0000
   4 C4          -3.1200     3.1189     1.2037 C.ar         1    LIG   0.0000
   5 C5          -1.8872     2.4733     1.2203 C.ar         1    LIG   0.0000
   6 C6          -1.2063     2.2435     2.5600 C.3          1    LIG   0.0000
   7 O7          -0.3738     3.3529     2.8644 O.3          1    LIG   0.0000
   8 C8          -1.3052     2.0536     0.0274 C.ar         1    LIG   0.0000
   9 C9          -0.0219     1.3779     0.0110 C.ar         1    LIG   0.0000
  10 C10         -0.0078    -0.0133    -0.0010 C.ar         1    LIG   0.0000
  11 C11          1.2039    -0.6963    -0.0161 C.ar         1    LIG   0.0000
  12 C12          2.3938     0.0246    -0.0201 C.ar         1    LIG   0.0000
  13 C13          3.7226    -0.7135    -0.0371 C.3          1    LIG   0.0000
  14 O14          4.1251    -0.9327    -1.3812 O.3          1    LIG   0.0000
  15 C15          2.3875     1.4158    -0.0090 C.ar         1    LIG   0.0000
  16 C16          1.1722     2.0926     0.0062 C.ar         1    LIG   0.0000
  17 C17          1.1885     3.6127     0.0182 C.3          1    LIG   0.0000
  18 C18         -1.9504     2.2767    -1.1848 C.ar         1    LIG   0.0000
  19 H           -4.7570     3.6398    -2.3458 H            1    LIG   0.0000
  20 H           -3.3130     3.7351    -3.1023 H            1    LIG   0.0000
  21 H           -4.0694     2.2944    -2.9651 H            1    LIG   0.0000
  22 H           -4.6566     3.8085    -0.0198 H            1    LIG   0.0000
  23 H           -3.5382     3.4202     2.0607 H            1    LIG   0.0000
  24 H           -1.8998     2.1416     3.2733 H            1    LIG   0.0000
  25 H           -0.6512     1.4130     2.5137 H            1    LIG   0.0000
  26 H            0.0740     3.2017     3.7456 H            1    LIG   0.0000
  27 H           -0.8687    -0.5222     0.0013 H            1    LIG   0.0000
  28 H            1.2196    -1.6961    -0.0241 H            1    LIG   0.0000
  29 H            4.4144    -0.1653     0.4328 H            1    LIG   0.0000
  30 H            3.6214    -1.5929     0.4282 H            1    LIG   0.0000
  31 H            4.9992    -1.4183    -1.3924 H            1    LIG   0.0000
  32 H            3.2484     1.9245    -0.0119 H            1    LIG   0.0000
  33 H            2.1348     3.9359     0.0125 H            1    LIG   0.0000
  34 H            0.7136     3.9575    -0.7915 H            1    LIG   0.0000
  35 H            0.7279     3.9445     0.8414 H            1    LIG   0.0000
  36 H           -1.5327     1.9756    -2.0421 H            1    LIG   0.0000
@<TRIPOS>BOND
   1        1        2 1
   2        2        3 ar
   3        3        4 ar
   4        4        5 ar
   5        5        6 1
   6        6        7 1
   7        5        8 ar
   8        8        9 1
   9        9       10 ar
  10       10       11 ar
  11       11       12 ar
  12       12       13 1
  13       13       14 1
  14       12       15 ar
  15       15       16 ar
  16       16        9 ar
  17       16       17 1
  18        8       18 ar
  19       18        2 ar
  20        1       19 1
  21        1       20 1
  22        1       21 1
  23        3       22 1
  24        4       23 1
  25        6       24 1
  26        6       25 1
  27        7       26 1
  28       10       27 1
  29       11       28 1
  30       13       29 1
  31       13       30 1
  32       14       31 1
  33       15       32 1
  34       17       33 1
  35       17       34 1
  36       17       35 1
  37       18       36 1

@<TRIPOS>MOLECULE

  36   37
SMALL
USER_CHARGES
@<TRIPOS>ATOM
   1 C1          -3.8910     3.1691    -2.5145 C.3          1    LIG   0.0000
   2 C2          -3.1822     2.9227    -1.1925 C.ar         1    LIG   0.0000
   3 C3          -3.7707     3.3449    -0.0048 C.ar         1    LIG   0.0000
   4 C4          -3.1200     3.1189     1.2037 C.ar         1    LIG   0.0000
   5 C5          -1.8872     2.4733     1.2203 C.ar         1    LIG   0.0000
   6 C6          -1.2063     2.2435     2.5600 C.3          1    LIG   0.0000
   7 O7          -0.3738     3.3529     2.8644 O.3          1    LIG   0.0000
   8 C8          -1.3052     2.0536     0.0274 C.ar         1    LIG   0.0000
   9 C9          -0.0219     1.3779     0.0110 C.ar         1    LIG   0.0000
  10 C10         -0.0078    -0.0133    -0.0010 C.ar         1    LIG   0.0000
  11 C11          1.2039    -0.6963    -0.0161 C.ar         1    LIG   0.0000
  12 C12          2.3938     0.0246    -0.0201 C.ar         1    LIG   0.0000
  13 C13          3.7226    -0.7135    -0.0371 C.3          1    LIG   0.0000
  14 O14          4.1476    -0.9540     1.2962 O.3          1    LIG   0.0000
  15 C15          2.3875     1.4158    -0.0090 C.ar         1    LIG   0.0000
  16 C16          1.1722     2.0926     0.0062 C.ar         1    LIG   0.0000
  17 C17          1.1885     3.6127     0.0182 C.3          1    LIG   0.0000
  18 C18         -1.9504     2.2767    -1.1848 C.ar         1    LIG   0.0000
  19 H           -4.7570     3.6398    -2.3458 H            1    LIG   0.0000
  20 H           -3.3130     3.7351    -3.1023 H            1    LIG   0.0000
  21 H           -4.0694     2.2944    -2.9651 H            1    LIG   0.0000
  22 H           -4.6566     3.8085    -0.0198 H            1    LIG   0.0000
  23 H           -3.5382     3.4202     2.0607 H            1    LIG   0.0000
  24 H           -1.8998     2.1416     3.2733 H            1    LIG   0.0000
  25 H           -0.6512     1.4130     2.5137 H            1    LIG   0.0000
  26 H            0.0740     3.2017     3.7456 H            1    LIG   0.0000
  27 H           -0.8687    -0.5222     0.0013 H            1    LIG   0.0000
  28 H            1.2196    -1.6961    -0.0241 H            1    LIG   0.0000
  29 H            3.6135    -1.5854    -0.5146 H            1    LIG   0.0000
  30 H            4.4065    -0.1579    -0.5099 H            1    LIG   0.0000
  31 H            5.0217    -1.4395     1.2850 H            1    LIG   0.0000
  32 H            3.2484     1.9245    -0.0119 H            1    LIG   0.0000
  33 H            2.1348     3.9359     0.0125 H            1    LIG   0.0000
  34 H            0.7136     3.9575    -0.7915 H            1    LIG   0.0000
  35 H            0.7279     3.9445     0.8414 H            1    LIG   0.0000
  36 H           -1.5327     1.9756    -2.0421 H            1    LIG   0.0000
@<TRIPOS>BOND
   1        1        2 1
   2        2        3 ar
   3        3        4 ar
   4        4        5 ar
   5        5        6 1
   6        6        7 1
   7        5        8 ar
   8        8        9 1
   9        9       10 ar
  10       10       11 ar
  11       11       12 ar
  12       12       13 1
  13       13       14 1
  14       12       15 ar
  15       15       16 ar
  16       16        9 ar
  17       16       17 1
  18        8       18 ar
  19       18        2 ar
  20        1       19 1
  21        1       20 1
  22        1       21 1
  23        3       22 1
  24        4       23 1
  25        6       24 1
  26        6       25 1
  27        7       26 1
  28       10       27 1
  29       11       28 1
  30       13       29 1
  31       13       30 1
  32       14       31 1
  33       15       32 1
  34       17       33 1
  35       17       34 1
  36       17       35 1
  37       18       36 1

@<TRIPOS>MOLECULE

  36   37
SMALL
USER_CHARGES
@<TRIPOS>ATOM
   1 C1          -3.8910     3.1691    -2.5145 C.3          1    LIG   0.0000
   2 C2          -3.1822     2.9227    -1.1925 C.ar         1    LIG   0.0000
   3 C3          -3.7707     3.3449    -0.0048 C.ar         1    LIG   0.0000
   4 C4          -3.1200     3.1189     1.2037 C.ar         1    LIG   0.0000
   5 C5          -1.8872     2.4733     1.2203 C.ar         1    LIG   0.0000
   6 C6          -1.2063     2.2435     2.5600 C.3          1    LIG   0.0000
   7 O7          -2.0180     2.7692     3.5999 O.3          1    LIG   0.0000
   8 C8          -1.3052     2.0536     0.0274 C.ar         1    LIG   0.0000
   9 C9          -0.0219     1.3779     0.0110 C.ar         1    LIG   0.0000
  10 C10         -0.0078    -0.0133    -0.0010 C.ar         1    LIG   0.0000
  11 C11          1.2039    -0.6963    -0.0161 C.ar         1    LIG   0.0000
  12 C12          2.3938     0.0246    -0.0201 C.ar         1    LIG   0.0000
  13 C13          3.7226    -0.7135    -0.0371 C.3          1    LIG   0.0000
  14 O14          4.7865     0.2270    -0.0386 O.3          1    LIG   0.0000
  15 C15          2.3875     1.4158    -0.0090 C.ar         1    LIG   0.0000
  16 C16          1.1722     2.0926     0.0062 C.ar         1    LIG   0.0000
  17 C17          1.1885     3.6127     0.0182 C.3          1    LIG   0.0000
  18 C18         -1.9504     2.2767    -1.1848 C.ar         1    LIG   0.0000
  19 H           -4.7570     3.6398    -2.3458 H            1    LIG   0.0000
  20 H           -3.3130     3.7351    -3.1023 H            1    LIG   0.0000
  21 H           -4.0694     2.2944    -2.9651 H            1    LIG   0.0000
  22 H           -4.6566     3.8085    -0.0198 H            1    LIG   0.0000
  23 H           -3.5382     3.4202     2.0607 H            1    LIG   0.0000
  24 H           -1.0750     1.2626     2.7033 H            1    LIG   0.0000
  25 H           -0.3182     2.7030     2.5657 H            1    LIG   0.0000
  26 H           -1.5701     2.6181     4.4811 H            1    LIG   0.0000
  27 H           -0.8687    -0.5222     0.0013 H            1    LIG   0.0000
  28 H            1.2196    -1.6961    -0.0241 H            1    LIG   0.0000
  29 H            3.7919    -1.2939     0.7742 H            1    LIG   0.0000
  30 H            3.7782    -1.2809    -0.8587 H            1    LIG   0.0000
  31 H            5.6606    -0.2586    -0.0498 H            1    LIG   0.0000
  32 H            3.2484     1.9245    -0.0119 H            1    LIG   0.0000
  33 H            2.1348     3.9359     0.0125 H            1    LIG   0.0000
  34 H            0.7136     3.9575    -0.7915 H            1    LIG   0.0000
  35 H            0.7279     3.9445     0.8414 H            1    LIG   0.0000
  36 H           -1.5327     1.9756    -2.0421 H            1    LIG   0.0000
@<TRIPOS>BOND
   1        1        2 1
   2        2        3 ar
   3        3        4 ar
   4        4        5 ar
   5        5        6 1
   6        6        7 1
   7        5        8 ar
   8        8        9 1
   9        9       10 ar
  10       10       11 ar
  11       11       12 ar
  12       12       13 1
  13       13       14 1
  14       12       15 ar
  15       15       16 ar
  16       16        9 ar
  17       16       17 1
  18        8       18 ar
  19       18        2 ar
  20        1       19 1
  21        1       20 1
  22        1       21 1
  23        3       22 1
  24        4       23 1
  25        6       24 1
  26        6       25 1
  27        7       26 1
  28       10       27 1
  29       11       28 1
  30       13       29 1
  31       13       30 1
  32       14       31 1
  33       15       32 1
  34       17       33 1
  35       17       34 1
  36       17       35 1
  37       18       36 1

@<TRIPOS>MOLECULE

  36   37
SMALL
USER_CHARGES
@<TRIPOS>ATOM
   1 C1          -3.8910     3.1691    -2.5145 C.3          1    LIG   0.0000
   2 C2          -3.1822     2.9227    -1.1925 C.ar         1    LIG   0.0000
   3 C3          -3.7707     3.3449    -0.0048 C.ar         1    LIG   0.0000
   4 C4          -3.1200     3.1189     1.2037 C.ar         1    LIG   0.0000
   5 C5          -1.8872     2.4733     1.2203 C.ar         1    LIG   0.0000
   6 C6          -1.2063     2.2435     2.5600 C.3          1    LIG   0.0000
   7 O7          -2.0180     2.7692     3.5999 O.3          1    LIG   0.0000
   8 C8          -1.3052     2.0536     0.0274 C.ar         1    LIG   0.0000
   9 C9          -0.0219     1.3779     0.0110 C.ar         1    LIG   0.0000
  10 C10         -0.0078    -0.0133    -0.0010 C.ar         1    LIG   0.0000
  11 C11          1.2039    -0.6963    -0.0161 C.ar         1    LIG   0.0000
  12 C12          2.3938     0.0246    -0.0201 C.ar         1    LIG   0.0000
  13 C13          3.7226    -0.7135    -0.0371 C.3          1    LIG   0.0000
  14 O14          3.4862    -2.1137    -0.0463 O.3          1    LIG   0.0000
  15 C15          2.3875     1.4158    -0.0090 C.ar         1    LIG   0.0000
  16 C16          1.1722     2.0926     0.0062 C.ar         1    LIG   0.0000
  17 C17          1.1885     3.6127     0.0182 C.3          1    LIG   0.0000
  18 C18         -1.9504     2.2767    -1.1848 C.ar         1    LIG   0.0000
  19 H           -4.7570     3.6398    -2.3458 H            1    LIG   0.0000
  20 H           -3.3130     3.7351    -3.1023 H            1    LIG   0.0000
  21 H           -4.0694     2.2944    -2.9651 H            1    LIG   0.0000
  22 H           -4.6566     3.8085    -0.0198 H            1    LIG   0.0000
  23 H           -3.5382     3.4202     2.0607 H            1    LIG   0.0000
  24 H           -1.0750     1.2626     2.7033 H            1    LIG   0.0000
  25 H           -0.3182     2.7030     2.5657 H            1    LIG   0.0000
  26 H           -1.5701     2.6181     4.4811 H            1    LIG   0.0000
  27 H           -0.8687    -0.5222     0.0013 H            1    LIG   0.0000
  28 H            1.2196    -1.6961    -0.0241 H            1    LIG   0.0000
  29 H            4.2360    -0.4568    -0.8560 H            1    LIG   0.0000
  30 H            4.2498    -0.4698     0.7769 H            1    LIG   0.0000
  31 H            4.3603    -2.5992    -0.0575 H            1    LIG   0.0000
  32 H            3.2484     1.9245    -0.0119 H            1    LIG   0.0000
  33 H            2.1348     3.9359     0.0125 H            1    LIG   0.0000
  34 H            0.7136     3.9575    -0.7915 H            1    LIG   0.0000
  35 H            0.7279     3.9445     0.8414 H            1    LIG   0.0000
  36 H           -1.5327     1.9756    -2.0421 H            1    LIG   0.0000
@<TRIPOS>BOND
   1        1        2 1
   2        2        3 ar
   3        3        4 ar
   4        4        5 ar
   5        5        6 1
   6        6        7 1
   7        5        8 ar
   8        8        9 1
   9        9       10 ar
  10       10       11 ar
  11       11       12 ar
  12       12       13 1
  13       13       14 1
  14       12       15 ar
  15       15       16 ar
  16       16        9 ar
  17       16       17 1
  18        8       18 ar
  19       18        2 ar
  20        1       19 1
  21        1       20 1
  22        1       21 1
  23        3       22 1
  24        4       23 1
  25        6       24 1
  26        6       25 1
  27        7       26 1
  28       10       27 1
  29       11       28 1
  30       13       29 1
  31       13       30 1
  32       14       31 1
  33       15       32 1
  34       17       33 1
  35       17       34 1
  36       17       35 1
  37       18       36 1

@<TRIPOS>MOLECULE

  36   37
SMALL
USER_CHARGES
@<TRIPOS>ATOM
   1 C1          -3.1816     4.5082    -2.1739 C.3          1    LIG   0.0000
   2 C2          -2.8395     3.5697    -1.0281 C.ar         1    LIG   0.0000
   3 C3          -3.7531     3.3782     0.0033 C.ar         1    LIG   0.0000
   4 C4          -3.4377     2.5192     1.0510 C.ar         1    LIG   0.0000
   5 C5          -2.2138     1.8568     1.0636 C.ar         1    LIG   0.0000
   6 C6          -1.9044     0.9257     2.2249 C.3          1    LIG   0.0000
   7 O7          -1.2620     1.6564     3.2592 O.3          1    LIG   0.0000
   8 C8          -1.3052     2.0536     0.0274 C.ar         1    LIG   0.0000
   9 C9          -0.0219     1.3779     0.0110 C.ar         1    LIG   0.0000
  10 C10         -0.0078    -0.0133    -0.0010 C.ar         1    LIG   0.0000
  11 C11          1.2039    -0.6963    -0.0161 C.ar         1    LIG   0.0000
  12 C12          2.3938     0.0246    -0.0201 C.ar         1    LIG   0.0000
  13 C13          3.7226    -0.7135    -0.0371 C.3          1    LIG   0.0000
  14 O14          4.1251    -0.9327    -1.3812 O.3          1    LIG   0.0000
  15 C15          2.3875     1.4158    -0.0090 C.ar         1    LIG   0.0000
  16 C16          1.1722     2.0926     0.0062 C.ar         1    LIG   0.0000
  17 C17          1.1885     3.6127     0.0182 C.3          1    LIG   0.0000
  18 C18         -1.6141     2.9114    -1.0234 C.ar         1    LIG   0.0000
  19 H           -4.0910     4.8970    -2.0262 H            1    LIG   0.0000
  20 H           -2.5067     5.2450    -2.2142 H            1    LIG   0.0000
  21 H           -3.1722     4.0001    -3.0352 H            1    LIG   0.0000
  22 H           -4.6318     3.8554    -0.0084 H            1    LIG   0.0000
  23 H           -4.0904     2.3777     1.7953 H            1    LIG   0.0000
  24 H           -2.7556     0.5331     2.5733 H            1    LIG   0.0000
  25 H           -1.3021     0.1913     1.9120 H            1    LIG   0.0000
  26 H           -1.0585     1.0440     4.0231 H            1    LIG   0.0000
  27 H           -0.8687    -0.5222     0.0013 H            1    LIG   0.0000
  28 H            1.2196    -1.6961    -0.0241 H            1    LIG   0.0000
  29 H            4.4144    -0.1653     0.4328 H            1    LIG   0.0000
  30 H            3.6214    -1.5929     0.4282 H            1    LIG   0.0000
  31 H            4.9992    -1.4183    -1.3924 H            1    LIG   0.0000
  32 H            3.2484     1.9245    -0.0119 H            1    LIG   0.0000
  33 H            2.1348     3.9359     0.0125 H            1    LIG   0.0000
  34 H            0.7136     3.9575    -0.7915 H            1    LIG   0.0000
  35 H            0.7279     3.9445     0.8414 H            1    LIG   0.0000
  36 H           -0.9617     3.0534    -1.7678 H            1    LIG   0.0000
@<TRIPOS>BOND
   1        1        2 1
   2        2        3 ar
   3        3        4 ar
   4        4        5 ar
   5        5        6 1
   6        6        7 1
   7        5        8 ar
   8        8        9 1
   9        9       10 ar
  10       10       11 ar
  11       11       12 ar
  12       12       13 1
  13       13       14 1
  14       12       15 ar
  15       15       16 ar
  16       16        9 ar
  17       16       17 1
  18        8       18 ar
  19       18        2 ar
  20        1       19 1
  21        1       20 1
  22        1       21 1
  23        3       22 1
  24        4       23 1
  25        6       24 1
  26        6       25 1
  27        7       26 1
  28       10       27 1
  29       11       28 1
  30       13       29 1
  31       13       30 1
  32       14       31 1
  33       15       32 1
  34       17       33 1
  35       17       34 1
  36       17       35 1
  37       18       36 1

@<TRIPOS>MOLECULE

  36   37
SMALL
USER_CHARGES
@<TRIPOS>ATOM
   1 C1          -3.1816     4.5082    -2.1739 C.3          1    LIG   0.0000
   2 C2          -2.8395     3.5697    -1.0281 C.ar         1    LIG   0.0000
   3 C3          -3.7531     3.3782     0.0033 C.ar         1    LIG   0.0000
   4 C4          -3.4377     2.5192     1.0510 C.ar         1    LIG   0.0000
   5 C5          -2.2138     1.8568     1.0636 C.ar         1    LIG   0.0000
   6 C6          -1.9044     0.9257     2.2249 C.3          1    LIG   0.0000
   7 O7          -1.2620     1.6564     3.2592 O.3          1    LIG   0.0000
   8 C8          -1.3052     2.0536     0.0274 C.ar         1    LIG   0.0000
   9 C9          -0.0219     1.3779     0.0110 C.ar         1    LIG   0.0000
  10 C10         -0.0078    -0.0133    -0.0010 C.ar         1    LIG   0.0000
  11 C11          1.2039    -0.6963    -0.0161 C.ar         1    LIG   0.0000
  12 C12          2.3938     0.0246    -0.0201 C.ar         1    LIG   0.0000
  13 C13          3.7226    -0.7135    -0.0371 C.3          1    LIG   0.0000
  14 O14          4.1476    -0.9540     1.2962 O.3          1    LIG   0.0000
  15 C15          2.3875     1.4158    -0.0090 C.ar         1    LIG   0.0000
  16 C16          1.1722     2.0926     0.0062 C.ar         1    LIG   0.0000
  17 C17          1.1885     3.6127     0.0182 C.3          1    LIG   0.0000
  18 C18         -1.6141     2.9114    -1.0234 C.ar         1    LIG   0.0000
  19 H           -4.0910     4.8970    -2.0262 H            1    LIG   0.0000
  20 H           -2.5067     5.2450    -2.2142 H            1    LIG   0.0000
  21 H           -3.1722     4.0001    -3.0352 H            1    LIG   0.0000
  22 H           -4.6318     3.8554    -0.0084 H            1    LIG   0.0000
  23 H           -4.0904     2.3777     1.7953 H            1    LIG   0.0000
  24 H           -2.7556     0.5331     2.5733 H            1    LIG   0.0000
  25 H           -1.3021     0.1913     1.9120 H            1    LIG   0.0000
  26 H           -1.0585     1.0440     4.0231 H            1    LIG   0.0000
  27 H           -0.8687    -0.5222     0.0013 H            1    LIG   0.0000
  28 H            1.2196    -1.6961    -0.0241 H            1    LIG   0.0000
  29 H            3.6135    -1.5854    -0.5146 H            1    LIG   0.0000
  30 H            4.4065    -0.1579    -0.5099 H            1    LIG   0.0000
  31 H            5.0217    -1.4395     1.2850 H            1    LIG   0.0000
  32 H            3.2484     1.9245    -0.0119 H            1    LIG   0.0000
  33 H            2.1348     3.9359     0.0125 H            1    LIG   0.0000
  34 H            0.7136     3.9575    -0.7915 H            1    LIG   0.0000
  35 H            0.7279     3.9445     0.8414 H            1    LIG   0.0000
  36 H           -0.9617     3.0534    -1.7678 H            1    LIG   0.0000
@<TRIPOS>BOND
   1        1        2 1
   2        2        3 ar
   3        3        4 ar
   4        4        5 ar
   5        5        6 1
   6        6        7 1
   7        5        8 ar
   8        8        9 1
   9        9       10 ar
  10       10       11 ar
  11       11       12 ar
  12       12       13 1
  13       13       14 1
  14       12       15 ar
  15       15       16 ar
  16       16        9 ar
  17       16       17 1
  18        8       18 ar
  19       18        2 ar
  20        1       19 1
  21        1       20 1
  22        1       21 1
  23        3       22 1
  24        4       23 1
  25        6       24 1
  26        6       25 1
  27        7       26 1
  28       10       27 1
  29       11       28 1
  30       13       29 1
  31       13       30 1
  32       14       31 1
  33       15       32 1
  34       17       33 1
  35       17       34 1
  36       17       35 1
  37       18       36 1

@<TRIPOS>MOLECULE

  36   37
SMALL
USER_CHARGES
@<TRIPOS>ATOM
   1 C1          -3.1816     4.5082    -2.1739 C.3          1    LIG   0.0000
   2 C2          -2.8395     3.5697    -1.0281 C.ar         1    LIG   0.0000
   3 C3          -3.7531     3.3782     0.0033 C.ar         1    LIG   0.0000
   4 C4          -3.4377     2.5192     1.0510 C.ar         1    LIG   0.0000
   5 C5          -2.2138     1.8568     1.0636 C.ar         1    LIG   0.0000
   6 C6          -1.9044     0.9257     2.2249 C.3          1    LIG   0.0000
   7 O7          -2.5670     1.3888     3.3923 O.3          1    LIG   0.0000
   8 C8          -1.3052     2.0536     0.0274 C.ar         1    LIG   0.0000
   9 C9          -0.0219     1.3779     0.0110 C.ar         1    LIG   0.0000
  10 C10         -0.0078    -0.0133    -0.0010 C.ar         1    LIG   0.0000
  11 C11          1.2039    -0.6963    -0.0161 C.ar         1    LIG   0.0000
  12 C12          2.3938     0.0246    -0.0201 C.ar         1    LIG   0.0000
  13 C13          3.7226    -0.7135    -0.0371 C.3          1    LIG   0.0000
  14 O14          3.4862    -2.1137    -0.0463 O.3          1    LIG   0.0000
  15 C15          2.3875     1.4158    -0.0090 C.ar         1    LIG   0.0000
  16 C16          1.1722     2.0926     0.0062 C.ar         1    LIG   0.0000
  17 C17          1.1885     3.6127     0.0182 C.3          1    LIG   0.0000
  18 C18         -1.6141     2.9114    -1.0234 C.ar         1    LIG   0.0000
  19 H           -4.0910     4.8970    -2.0262 H            1    LIG   0.0000
  20 H           -2.5067     5.2450    -2.2142 H            1    LIG   0.0000
  21 H           -3.1722     4.0001    -3.0352 H            1    LIG   0.0000
  22 H           -4.6318     3.8554    -0.0084 H            1    LIG   0.0000
  23 H           -4.0904     2.3777     1.7953 H            1    LIG   0.0000
  24 H           -2.2212     0.0028     2.0058 H            1    LIG   0.0000
  25 H           -0.9176     0.9100     2.3857 H            1    LIG   0.0000
  26 H           -2.3635     0.7764     4.1562 H            1    LIG   0.0000
  27 H           -0.8687    -0.5222     0.0013 H            1    LIG   0.0000
  28 H            1.2196    -1.6961    -0.0241 H            1    LIG   0.0000
  29 H            4.2360    -0.4568    -0.8560 H            1    LIG   0.0000
  30 H            4.2498    -0.4698     0.7769 H            1    LIG   0.0000
  31 H            4.3603    -2.5992    -0.0575 H            1    LIG   0.0000
  32 H            3.2484     1.9245    -0.0119 H            1    LIG   0.0000
  33 H            2.1348     3.9359     0.0125 H            1    LIG   0.0000
  34 H            0.7136     3.9575    -0.7915 H            1    LIG   0.0000
  35 H            0.7279     3.9445     0.8414 H            1    LIG   0.0000
  36 H           -0.9617     3.0534    -1.7678 H            1    LIG   0.0000
@<TRIPOS>BOND
   1        1        2 1
   2        2        3 ar
   3        3        4 ar
   4        4        5 ar
   5        5        6 1
   6        6        7 1
   7        5        8 ar
   8        8        9 1
   9        9       10 ar
  10       10       11 ar
  11       11       12 ar
  12       12       13 1
  13       13       14 1
  14       12       15 ar
  15       15       16 ar
  16       16        9 ar
  17       16       17 1
  18        8       18 ar
  19       18        2 ar
  20        1       19 1
  21        1       20 1
  22        1       21 1
  23        3       22 1
  24        4       23 1
  25        6       24 1
  26        6       25 1
  27        7       26 1
  28       10       27 1
  29       11       28 1
  30       13       29 1
  31       13       30 1
  32       14       31 1
  33       15       32 1
  34       17       33 1
  35       17       34 1
  36       17       35 1
  37       18       36 1

@<TRIPOS>MOLECULE

  36   37
SMALL
USER_CHARGES
@<TRIPOS>ATOM
   1 C1          -3.1816     4.5082    -2.1739 C.3          1    LIG   0.0000
   2 C2          -2.8395     3.5697    -1.0281 C.ar         1    LIG   0.0000
   3 C3          -3.7531     3.3782     0.0033 C.ar         1    LIG   0.0000
   4 C4          -3.4377     2.5192     1.0510 C.ar         1    LIG   0.0000
   5 C5          -2.2138     1.8568     1.0636 C.ar         1    LIG   0.0000
   6 C6          -1.9044     0.9257     2.2249 C.3          1    LIG   0.0000
   7 O7          -2.9997     0.9160     3.1286 O.3          1    LIG   0.0000
   8 C8          -1.3052     2.0536     0.0274 C.ar         1    LIG   0.0000
   9 C9          -0.0219     1.3779     0.0110 C.ar         1    LIG   0.0000
  10 C10         -0.0078    -0.0133    -0.0010 C.ar         1    LIG   0.0000
  11 C11          1.2039    -0.6963    -0.0161 C.ar         1    LIG   0.0000
  12 C12          2.3938     0.0246    -0.0201 C.ar         1    LIG   0.0000
  13 C13          3.7226    -0.7135    -0.0371 C.3          1    LIG   0.0000
  14 O14          4.7865     0.2270    -0.0386 O.3          1    LIG   0.0000
  15 C15          2.3875     1.4158    -0.0090 C.ar         1    LIG   0.0000
  16 C16          1.1722     2.0926     0.0062 C.ar         1    LIG   0.0000
  17 C17          1.1885     3.6127     0.0182 C.3          1    LIG   0.0000
  18 C18         -1.6141     2.9114    -1.0234 C.ar         1    LIG   0.0000
  19 H           -4.0910     4.8970    -2.0262 H            1    LIG   0.0000
  20 H           -2.5067     5.2450    -2.2142 H            1    LIG   0.0000
  21 H           -3.1722     4.0001    -3.0352 H            1    LIG   0.0000
  22 H           -4.6318     3.8554    -0.0084 H            1    LIG   0.0000
  23 H           -4.0904     2.3777     1.7953 H            1    LIG   0.0000
  24 H           -1.7501     0.0005     1.8783 H            1    LIG   0.0000
  25 H           -1.0840     1.2453     2.6989 H            1    LIG   0.0000
  26 H           -2.7962     0.3036     3.8925 H            1    LIG   0.0000
  27 H           -0.8687    -0.5222     0.0013 H            1    LIG   0.0000
  28 H            1.2196    -1.6961    -0.0241 H            1    LIG   0.0000
  29 H            3.7919    -1.2939     0.7742 H            1    LIG   0.0000
  30 H            3.7782    -1.2809    -0.8587 H            1    LIG   0.0000
  31 H            5.6606    -0.2586    -0.0498 H            1    LIG   0.0000
  32 H            3.2484     1.9245    -0.0119 H            1    LIG   0.0000
  33 H            2.1348     3.9359     0.0125 H            1    LIG   0.0000
  34 H            0.7136     3.9575    -0.7915 H            1    LIG   0.0000
  35 H            0.7279     3.9445     0.8414 H            1    LIG   0.0000
  36 H           -0.9617     3.0534    -1.7678 H            1    LIG   0.0000
@<TRIPOS>BOND
   1        1        2 1
   2        2        3 ar
   3        3        4 ar
   4        4        5 ar
   5        5        6 1
   6        6        7 1
   7        5        8 ar
   8        8        9 1
   9        9       10 ar
  10       10       11 ar
  11       11       12 ar
  12       12       13 1
  13       13       14 1
  14       12       15 ar
  15       15       16 ar
  16       16        9 ar
  17       16       17 1
  18        8       18 ar
  19       18        2 ar
  20        1       19 1
  21        1       20 1
  22        1       21 1
  23        3       22 1
  24        4       23 1
  25        6       24 1
  26        6       25 1
  27        7       26 1
  28       10       27 1
  29       11       28 1
  30       13       29 1
  31       13       30 1
  32       14       31 1
  33       15       32 1
  34       17       33 1
  35       17       34 1
  36       17       35 1
  37       18       36 1

@<TRIPOS>MOLECULE

  36   37
SMALL
USER_CHARGES
@<TRIPOS>ATOM
   1 C1          -3.1430     4.4732     2.2990 C.3          1    LIG   0.0000
   2 C2          -2.8206     3.5531     1.1327 C.ar         1    LIG   0.0000
   3 C3          -3.7517     3.3781     0.1141 C.ar         1    LIG   0.0000
   4 C4          -3.4548     2.5354    -0.9521 C.ar         1    LIG   0.0000
   5 C5          -2.2317     1.8728    -0.9958 C.ar         1    LIG   0.0000
   6 C6          -1.9424     0.9602    -2.1768 C.3          1    LIG   0.0000
   7 O7          -2.3867    -0.3551    -1.8785 O.3          1    LIG   0.0000
   8 C8          -1.3052     2.0536     0.0274 C.ar         1    LIG   0.0000
   9 C9          -0.0219     1.3779     0.0110 C.ar         1    LIG   0.0000
  10 C10         -0.0078    -0.0133    -0.0010 C.ar         1    LIG   0.0000
  11 C11          1.2039    -0.6963    -0.0161 C.ar         1    LIG   0.0000
  12 C12          2.3938     0.0246    -0.0201 C.ar         1    LIG   0.0000
  13 C13          3.7226    -0.7135    -0.0371 C.3          1    LIG   0.0000
  14 O14          4.1251    -0.9327    -1.3812 O.3          1    LIG   0.0000
  15 C15          2.3875     1.4158    -0.0090 C.ar         1    LIG   0.0000
  16 C16          1.1722     2.0926     0.0062 C.ar         1    LIG   0.0000
  17 C17          1.1885     3.6127     0.0182 C.3          1    LIG   0.0000
  18 C18         -1.5958     2.8948     1.0967 C.ar         1    LIG   0.0000
  19 H           -4.0546     4.8644     2.1729 H            1    LIG   0.0000
  20 H           -3.1193     3.9513     3.1517 H            1    LIG   0.0000
  21 H           -2.4671     5.2091     2.3398 H            1    LIG   0.0000
  22 H           -4.6297     3.8556     0.1481 H            1    LIG   0.0000
  23 H           -4.1202     2.4056    -1.6872 H            1    LIG   0.0000
  24 H           -2.4233     1.2991    -2.9855 H            1    LIG   0.0000
  25 H           -0.9585     0.9474    -2.3550 H            1    LIG   0.0000
  26 H           -2.1964    -0.9554    -2.6554 H            1    LIG   0.0000
  27 H           -0.8687    -0.5222     0.0013 H            1    LIG   0.0000
  28 H            1.2196    -1.6961    -0.0241 H            1    LIG   0.0000
  29 H            4.4144    -0.1653     0.4328 H            1    LIG   0.0000
  30 H            3.6214    -1.5929     0.4282 H            1    LIG   0.0000
  31 H            4.9992    -1.4183    -1.3924 H            1    LIG   0.0000
  32 H            3.2484     1.9245    -0.0119 H            1    LIG   0.0000
  33 H            2.1348     3.9359     0.0125 H            1    LIG   0.0000
  34 H            0.7136     3.9575    -0.7915 H            1    LIG   0.0000
  35 H            0.7279     3.9445     0.8414 H            1    LIG   0.0000
  36 H           -0.9308     3.0249     1.8321 H            1    LIG   0.0000
@<TRIPOS>BOND
   1        1        2 1
   2        2        3 ar
   3        3        4 ar
   4        4        5 ar
   5        5        6 1
   6        6        7 1
   7        5        8 ar
   8        8        9 1
   9        9       10 ar
  10       10       11 ar
  11       11       12 ar
  12       12       13 1
  13       13       14 1
  14       12       15 ar
  15       15       16 ar
  16       16        9 ar
  17       16       17 1
  18        8       18 ar
  19       18        2 ar
  20        1       19 1
  21        1       20 1
  22        1       21 1
  23        3       22 1
  24        4       23 1
  25        6       24 1
  26        6       25 1
  27        7       26 1
  28       10       27 1
  29       11       28 1
  30       13       29 1
  31       13       30 1
  32       14       31 1
  33       15       32 1
  34       17       33 1
  35       17       34 1
  36       17       35 1
  37       18       36 1

@<TRIPOS>MOLECULE

  36   37
SMALL
USER_CHARGES
@<TRIPOS>ATOM
   1 C1          -3.1430     4.4732     2.2990 C.3          1    LIG   0.0000
   2 C2          -2.8206     3.5531     1.1327 C.ar         1    LIG   0.0000
   3 C3          -3.7517     3.3781     0.1141 C.ar         1    LIG   0.0000
   4 C4          -3.4548     2.5354    -0.9521 C.ar         1    LIG   0.0000
   5 C5          -2.2317     1.8728    -0.9958 C.ar         1    LIG   0.0000
   6 C6          -1.9424     0.9602    -2.1768 C.3          1    LIG   0.0000
   7 O7          -2.3867    -0.3551    -1.8785 O.3          1    LIG   0.0000
   8 C8          -1.3052     2.0536     0.0274 C.ar         1    LIG   0.0000
   9 C9          -0.0219     1.3779     0.0110 C.ar         1    LIG   0.0000
  10 C10         -0.0078    -0.0133    -0.0010 C.ar         1    LIG   0.0000
  11 C11          1.2039    -0.6963    -0.0161 C.ar         1    LIG   0.0000
  12 C12          2.3938     0.0246    -0.0201 C.ar         1    LIG   0.0000
  13 C13          3.7226    -0.7135    -0.0371 C.3          1    LIG   0.0000
  14 O14          4.1476    -0.9540     1.2962 O.3          1    LIG   0.0000
  15 C15          2.3875     1.4158    -0.0090 C.ar         1    LIG   0.0000
  16 C16          1.1722     2.0926     0.0062 C.ar         1    LIG   0.0000
  17 C17          1.1885     3.6127     0.0182 C.3          1    LIG   0.0000
  18 C18         -1.5958     2.8948     1.0967 C.ar         1    LIG   0.0000
  19 H           -4.0546     4.8644     2.1729 H            1    LIG   0.0000
  20 H           -3.1193     3.9513     3.1517 H            1    LIG   0.0000
  21 H           -2.4671     5.2091     2.3398 H            1    LIG   0.0000
  22 H           -4.6297     3.8556     0.1481 H            1    LIG   0.0000
  23 H           -4.1202     2.4056    -1.6872 H            1    LIG   0.0000
  24 H           -2.4233     1.2991    -2.9855 H            1    LIG   0.0000
  25 H           -0.9585     0.9474    -2.3550 H            1    LIG   0.0000
  26 H           -2.1964    -0.9554    -2.6554 H            1    LIG   0.0000
  27 H           -0.8687    -0.5222     0.0013 H            1    LIG   0.0000
  28 H            1.2196    -1.6961    -0.0241 H            1    LIG   0.0000
  29 H            3.6135    -1.5854    -0.5146 H            1    LIG   0.0000
  30 H            4.4065    -0.1579    -0.5099 H            1    LIG   0.0000
  31 H            5.0217    -1.4395     1.2850 H            1    LIG   0.0000
  32 H            3.2484     1.9245    -0.0119 H            1    LIG   0.0000
  33 H            2.1348     3.9359     0.0125 H            1    LIG   0.0000
  34 H            0.7136     3.9575    -0.7915 H            1    LIG   0.0000
  35 H            0.7279     3.9445     0.8414 H            1    LIG   0.0000
  36 H           -0.9308     3.0249     1.8321 H            1    LIG   0.0000
@<TRIPOS>BOND
   1        1        2 1
   2        2        3 ar
   3        3        4 ar
   4        4        5 ar
   5        5        6 1
   6        6        7 1
   7        5        8 ar
   8        8        9 1
   9        9       10 ar
  10       10       11 ar
  11       11       12 ar
  12       12       13 1
  13       13       14 1
  14       12       15 ar
  15       15       16 ar
  16       16        9 ar
  17       16       17 1
  18        8       18 ar
  19       18        2 ar
  20        1       19 1
  21        1       20 1
  22        1       21 1
  23        3       22 1
  24        4       23 1
  25        6       24 1
  26        6       25 1
  27        7       26 1
  28       10       27 1
  29       11       28 1
  30       13       29 1
  31       13       30 1
  32       14       31 1
  33       15       32 1
  34       17       33 1
  35       17       34 1
  36       17       35 1
  37       18       36 1

@<TRIPOS>MOLECULE

  36   37
SMALL
USER_CHARGES
@<TRIPOS>ATOM
   1 C1          -3.1430     4.4732     2.2990 C.3          1    LIG   0.0000
   2 C2          -2.8206     3.5531     1.1327 C.ar         1    LIG   0.0000
   3 C3          -3.7517     3.3781     0.1141 C.ar         1    LIG   0.0000
   4 C4          -3.4548     2.5354    -0.9521 C.ar         1    LIG   0.0000
   5 C5          -2.2317     1.8728    -0.9958 C.ar         1    LIG   0.0000
   6 C6          -1.9424     0.9602    -2.1768 C.3          1    LIG   0.0000
   7 O7          -3.1595     0.4102    -2.6592 O.3          1    LIG   0.0000
   8 C8          -1.3052     2.0536     0.0274 C.ar         1    LIG   0.0000
   9 C9          -0.0219     1.3779     0.0110 C.ar         1    LIG   0.0000
  10 C10         -0.0078    -0.0133    -0.0010 C.ar         1    LIG   0.0000
  11 C11          1.2039    -0.6963    -0.0161 C.ar         1    LIG   0.0000
  12 C12          2.3938     0.0246    -0.0201 C.ar         1    LIG   0.0000
  13 C13          3.7226    -0.7135    -0.0371 C.3          1    LIG   0.0000
  14 O14          4.7865     0.2270    -0.0386 O.3          1    LIG   0.0000
  15 C15          2.3875     1.4158    -0.0090 C.ar         1    LIG   0.0000
  16 C16          1.1722     2.0926     0.0062 C.ar         1    LIG   0.0000
  17 C17          1.1885     3.6127     0.0182 C.3          1    LIG   0.0000
  18 C18         -1.5958     2.8948     1.0967 C.ar         1    LIG   0.0000
  19 H           -4.0546     4.8644     2.1729 H            1    LIG   0.0000
  20 H           -3.1193     3.9513     3.1517 H            1    LIG   0.0000
  21 H           -2.4671     5.2091     2.3398 H            1    LIG   0.0000
  22 H           -4.6297     3.8556     0.1481 H            1    LIG   0.0000
  23 H           -4.1202     2.4056    -1.6872 H            1    LIG   0.0000
  24 H           -1.5028     1.4863    -2.9047 H            1    LIG   0.0000
  25 H           -1.3348     0.2212    -1.8860 H            1    LIG   0.0000
  26 H           -2.9692    -0.1901    -3.4360 H            1    LIG   0.0000
  27 H           -0.8687    -0.5222     0.0013 H            1    LIG   0.0000
  28 H            1.2196    -1.6961    -0.0241 H            1    LIG   0.0000
  29 H            3.7919    -1.2939     0.7742 H            1    LIG   0.0000
  30 H            3.7782    -1.2809    -0.8587 H            1    LIG   0.0000
  31 H            5.6606    -0.2586    -0.0498 H            1    LIG   0.0000
  32 H            3.2484     1.9245    -0.0119 H            1    LIG   0.0000
  33 H            2.1348     3.9359     0.0125 H            1    LIG   0.0000
  34 H            0.7136     3.9575    -0.7915 H            1    LIG   0.0000
  35 H            0.7279     3.9445     0.8414 H            1    LIG   0.0000
  36 H           -0.9308     3.0249     1.8321 H            1    LIG   0.0000
@<TRIPOS>BOND
   1        1        2 1
   2        2        3 ar
   3        3        4 ar
   4        4        5 ar
   5        5        6 1
   6        6        7 1
   7        5        8 ar
   8        8        9 1
   9        9       10 ar
  10       10       11 ar
  11       11       12 ar
  12       12       13 1
  13       13       14 1
  14       12       15 ar
  15       15       16 ar
  16       16        9 ar
  17       16       17 1
  18        8       18 ar
  19       18        2 ar
  20        1       19 1
  21        1       20 1
  22        1       21 1
  23        3       22 1
  24        4       23 1
  25        6       24 1
  26        6       25 1
  27        7       26 1
  28       10       27 1
  29       11       28 1
  30       13       29 1
  31       13       30 1
  32       14       31 1
  33       15       32 1
  34       17       33 1
  35       17       34 1
  36       17       35 1
  37       18       36 1

@<TRIPOS>MOLECULE

  36   37
SMALL
USER_CHARGES
@<TRIPOS>ATOM
   1 C1          -3.1430     4.4732     2.2990 C.3          1    LIG   0.0000
   2 C2          -2.8206     3.5531     1.1327 C.ar         1    LIG   0.0000
   3 C3          -3.7517     3.3781     0.1141 C.ar         1    LIG   0.0000
   4 C4          -3.4548     2.5354    -0.9521 C.ar         1    LIG   0.0000
   5 C5          -2.2317     1.8728    -0.9958 C.ar         1    LIG   0.0000
   6 C6          -1.9424     0.9602    -2.1768 C.3          1    LIG   0.0000
   7 O7          -3.1595     0.4102    -2.6592 O.3          1    LIG   0.0000
   8 C8          -1.3052     2.0536     0.0274 C.ar         1    LIG   0.0000
   9 C9          -0.0219     1.3779     0.0110 C.ar         1    LIG   0.0000
  10 C10         -0.0078    -0.0133    -0.0010 C.ar         1    LIG   0.0000
  11 C11          1.2039    -0.6963    -0.0161 C.ar         1    LIG   0.0000
  12 C12          2.3938     0.0246    -0.0201 C.ar         1    LIG   0.0000
  13 C13          3.7226    -0.7135    -0.0371 C.3          1    LIG   0.0000
  14 O14          3.4862    -2.1137    -0.0463 O.3          1    LIG   0.0000
  15 C15          2.3875     1.4158    -0.0090 C.ar         1    LIG   0.0000
  16 C16          1.1722     2.0926     0.0062 C.ar         1    LIG   0.0000
  17 C17          1.1885     3.6127     0.0182 C.3          1    LIG   0.0000
  18 C18         -1.5958     2.8948     1.0967 C.ar         1    LIG   0.0000
  19 H           -4.0546     4.8644     2.1729 H            1    LIG   0.0000
  20 H           -3.1193     3.9513     3.1517 H            1    LIG   0.0000
  21 H           -2.4671     5.2091     2.3398 H            1    LIG   0.0000
  22 H           -4.6297     3.8556     0.1481 H            1    LIG   0.0000
  23 H           -4.1202     2.4056    -1.6872 H            1    LIG   0.0000
  24 H           -1.5028     1.4863    -2.9047 H            1    LIG   0.0000
  25 H           -1.3348     0.2212    -1.8860 H            1    LIG   0.0000
  26 H           -2.9692    -0.1901    -3.4360 H            1    LIG   0.0000
  27 H           -0.8687    -0.5222     0.0013 H            1    LIG   0.0000
  28 H            1.2196    -1.6961    -0.0241 H            1    LIG   0.0000
  29 H            4.2360    -0.4568    -0.8560 H            1    LIG   0.0000
  30 H            4.2498    -0.4698     0.7769 H            1    LIG   0.0000
  31 H            4.3603    -2.5992    -0.0575 H            1    LIG   0.0000
  32 H            3.2484     1.9245    -0.0119 H            1    LIG   0.0000
  33 H            2.1348     3.9359     0.0125 H            1    LIG   0.0000
  34 H            0.7136     3.9575    -0.7915 H            1    LIG   0.0000
  35 H            0.7279     3.9445     0.8414 H            1    LIG   0.0000
  36 H           -0.9308     3.0249     1.8321 H            1    LIG   0.0000
@<TRIPOS>BOND
   1        1        2 1
   2        2        3 ar
   3        3        4 ar
   4        4        5 ar
   5        5        6 1
   6        6        7 1
   7        5        8 ar
   8        8        9 1
   9        9       10 ar
  10       10       11 ar
  11       11       12 ar
  12       12       13 1
  13       13       14 1
  14       12       15 ar
  15       15       16 ar
  16       16        9 ar
  17       16       17 1
  18        8       18 ar
  19       18        2 ar
  20        1       19 1
  21        1       20 1
  22        1       21 1
  23        3       22 1
  24        4       23 1
  25        6       24 1
  26        6       25 1
  27        7       26 1
  28       10       27 1
  29       11       28 1
  30       13       29 1
  31       13       30 1
  32       14       31 1
  33       15       32 1
  34       17       33 1
  35       17       34 1
  36       17       35 1
  37       18       36 1

