@<TRIPOS>MOLECULE
*****
 36 37 0 0 0
SMALL
USER_CHARGES

@<TRIPOS>ATOM
      1 C1         -3.1816    4.5082   -2.1739 C.3     1  LIG1        0.0000
      2 C2         -2.8395    3.5697   -1.0281 C.ar    1  LIG1        0.0000
      3 C3         -3.7531    3.3782    0.0033 C.ar    1  LIG1        0.0000
      4 C4         -3.4377    2.5192    1.0510 C.ar    1  LIG1        0.0000
      5 C5         -2.2138    1.8568    1.0636 C.ar    1  LIG1        0.0000
      6 C6         -1.9044    0.9257    2.2249 C.3     1  LIG1        0.0000
      7 O7         -1.2620    1.6564    3.2592 O.3     1  LIG1        0.0000
      8 C8         -1.3052    2.0536    0.0274 C.ar    1  LIG1        0.0000
      9 C9         -0.0219    1.3779    0.0110 C.ar    1  LIG1        0.0000
     10 C10        -0.0078   -0.0133   -0.0010 C.ar    1  LIG1        0.0000
     11 C11         1.2039   -0.6963   -0.0161 C.ar    1  LIG1        0.0000
     12 C12         2.3938    0.0246   -0.0201 C.ar    1  LIG1        0.0000
     13 C13         3.7226   -0.7135   -0.0371 C.3     1  LIG1        0.0000
     14 O14         4.1251   -0.9327   -1.3812 O.3     1  LIG1        0.0000
     15 C15         2.3875    1.4158   -0.0090 C.ar    1  LIG1        0.0000
     16 C16         1.1722    2.0926    0.0062 C.ar    1  LIG1        0.0000
     17 C17         1.1885    3.6127    0.0182 C.3     1  LIG1        0.0000
     18 C18        -1.6141    2.9114   -1.0234 C.ar    1  LIG1        0.0000
     19 H          -4.0910    4.8970   -2.0262 H       1  LIG1        0.0000
     20 H          -2.5067    5.2450   -2.2142 H       1  LIG1        0.0000
     21 H          -3.1722    4.0001   -3.0352 H       1  LIG1        0.0000
     22 H          -4.6318    3.8554   -0.0084 H       1  LIG1        0.0000
     23 H          -4.0904    2.3777    1.7953 H       1  LIG1        0.0000
     24 H          -2.7556    0.5331    2.5733 H       1  LIG1        0.0000
     25 H          -1.3021    0.1913    1.9120 H       1  LIG1        0.0000
     26 H          -1.0585    1.0440    4.0231 H       1  LIG1        0.0000
     27 H          -0.8687   -0.5222    0.0013 H       1  LIG1        0.0000
     28 H           1.2196   -1.6961   -0.0241 H       1  LIG1        0.0000
     29 H           4.4144   -0.1653    0.4328 H       1  LIG1        0.0000
     30 H           3.6214   -1.5929    0.4282 H       1  LIG1        0.0000
     31 H           4.9992   -1.4183   -1.3924 H       1  LIG1        0.0000
     32 H           3.2484    1.9245   -0.0119 H       1  LIG1        0.0000
     33 H           2.1348    3.9359    0.0125 H       1  LIG1        0.0000
     34 H           0.7136    3.9575   -0.7915 H       1  LIG1        0.0000
     35 H           0.7279    3.9445    0.8414 H       1  LIG1        0.0000
     36 H          -0.9617    3.0534   -1.7678 H       1  LIG1        0.0000
@<TRIPOS>BOND
     1     1     2    1
     2     2     3   ar
     3     3     4   ar
     4     4     5   ar
     5     5     6    1
     6     6     7    1
     7     5     8   ar
     8     8     9    1
     9     9    10   ar
    10    10    11   ar
    11    11    12   ar
    12    12    13    1
    13    13    14    1
    14    12    15   ar
    15    15    16   ar
    16    16     9   ar
    17    16    17    1
    18     8    18   ar
    19    18     2   ar
    20     1    19    1
    21     1    20    1
    22     1    21    1
    23     3    22    1
    24     4    23    1
    25     6    24    1
    26     6    25    1
    27     7    26    1
    28    10    27    1
    29    11    28    1
    30    13    29    1
    31    13    30    1
    32    14    31    1
    33    15    32    1
    34    17    33    1
    35    17    34    1
    36    17    35    1
    37    18    36    1
