@<TRIPOS>MOLECULE

  17   18
SMALL
USER_CHARGES
@<TRIPOS>ATOM
   1 O1           0.3750     1.6682     0.1483 O.co2        1    LIG   0.0000
   2 C2           1.0000     1.0000     1.0000 C.2          1    LIG   0.0000
   3 O3           0.3950     0.3532     1.8244 O.co2        1    LIG  -1.0000
   4 C4           2.4524     1.0000     1.0000 C.2          1    LIG   0.0000
   5 S5           3.4261     1.8610    -0.0974 S.3          1    LIG   0.0000
   6 C6           4.9176     1.3536     0.5386 C.ar         1    LIG   0.0000
   7 C7           6.1320     1.7631     0.0169 C.ar         1    LIG   0.0000
   8 F8           6.2119     2.5866    -1.0268 F            1    LIG   0.0000
   9 C9           7.2513     1.2576     0.6535 C.ar         1    LIG   0.0000
  10 Cl10         8.8254     1.7687     0.0009 Cl           1    LIG   0.0000
  11 C11          7.1101     0.3997     1.7402 C.ar         1    LIG   0.0000
  12 C12          5.8489     0.0376     2.2045 C.ar         1    LIG   0.0000
  13 Cl13         5.8255    -1.0669     3.6017 Cl           1    LIG   0.0000
  14 C14          4.6819     0.5157     1.6046 C.ar         1    LIG   0.0000
  15 C15          3.2877     0.3321     1.8446 C.2          1    LIG   0.0000
  16 Cl16         2.5825    -0.6781     3.1302 Cl           1    LIG   0.0000
  17 H            7.9253     0.0388     2.1933 H            1    LIG   0.0000
@<TRIPOS>BOND
   1        1        2 ar
   2        2        3 ar
   3        2        4 1
   4        4        5 1
   5        5        6 1
   6        6        7 ar
   7        7        8 1
   8        7        9 ar
   9        9       10 1
  10        9       11 ar
  11       11       12 ar
  12       12       13 1
  13       12       14 ar
  14       14        6 ar
  15       14       15 1
  16       15        4 2
  17       15       16 1
  18       11       17 1

@<TRIPOS>MOLECULE

  17   18
SMALL
USER_CHARGES
@<TRIPOS>ATOM
   1 O1           0.3750     1.6682     0.1483 O.co2        1    LIG   0.0000
   2 C2           1.0000     1.0000     1.0000 C.2          1    LIG   0.0000
   3 O3           0.3950     0.3532     1.8244 O.co2        1    LIG  -1.0000
   4 C4           2.4524     1.0000     1.0000 C.2          1    LIG   0.0000
   5 S5           3.4261     2.1844     0.2632 S.3          1    LIG   0.0000
   6 C6           4.9176     1.4901     0.6873 C.ar         1    LIG   0.0000
   7 C7           6.1320     2.0533     0.3372 C.ar         1    LIG   0.0000
   8 F8           6.2119     3.1841    -0.3620 F            1    LIG   0.0000
   9 C9           7.2513     1.3606     0.7625 C.ar         1    LIG   0.0000
  10 Cl10         8.8254     2.0640     0.3240 Cl           1    LIG   0.0000
  11 C11          7.1101     0.1827     1.4903 C.ar         1    LIG   0.0000
  12 C12          5.8489    -0.3163     1.8027 C.ar         1    LIG   0.0000
  13 Cl13         5.8255    -1.8320     2.7379 Cl           1    LIG   0.0000
  14 C14          4.6819     0.3381     1.4025 C.ar         1    LIG   0.0000
  15 C15          3.2877     0.0835     1.5652 C.2          1    LIG   0.0000
  16 Cl16         2.5825    -1.3054     2.4278 Cl           1    LIG   0.0000
  17 H            7.9253    -0.3114     1.7926 H            1    LIG   0.0000
@<TRIPOS>BOND
   1        1        2 ar
   2        2        3 ar
   3        2        4 1
   4        4        5 1
   5        5        6 1
   6        6        7 ar
   7        7        8 1
   8        7        9 ar
   9        9       10 1
  10        9       11 ar
  11       11       12 ar
  12       12       13 1
  13       12       14 ar
  14       14        6 ar
  15       14       15 1
  16       15        4 2
  17       15       16 1
  18       11       17 1

@<TRIPOS>MOLECULE

  17   18
SMALL
USER_CHARGES
@<TRIPOS>ATOM
   1 O1           0.3750     1.6682     0.1483 O.co2        1    LIG   0.0000
   2 C2           1.0000     1.0000     1.0000 C.2          1    LIG   0.0000
   3 O3           0.3950     0.3532     1.8244 O.co2        1    LIG  -1.0000
   4 C4           2.4524     1.0000     1.0000 C.2          1    LIG   0.0000
   5 S5           3.4261     1.4337    -0.3257 S.3          1    LIG   0.0000
   6 C6           4.9176     1.1744     0.4455 C.ar         1    LIG   0.0000
   7 C7           6.1320     1.3808    -0.1848 C.ar         1    LIG   0.0000
   8 F8           6.2119     1.7977    -1.4473 F            1    LIG   0.0000
   9 C9           7.2513     1.1236     0.5863 C.ar         1    LIG   0.0000
  10 Cl10         8.8254     1.3806    -0.2018 Cl           1    LIG   0.0000
  11 C11          7.1101     0.6891     1.9009 C.ar         1    LIG   0.0000
  12 C12          5.8489     0.5076     2.4610 C.ar         1    LIG   0.0000
  13 Cl13         5.8255    -0.0524     4.1517 Cl           1    LIG   0.0000
  14 C14          4.6819     0.7517     1.7338 C.ar         1    LIG   0.0000
  15 C15          3.2877     0.6613     2.0221 C.2          1    LIG   0.0000
  16 Cl16         2.5825     0.1517     3.5757 Cl           1    LIG   0.0000
  17 H            7.9253     0.5049     2.4501 H            1    LIG   0.0000
@<TRIPOS>BOND
   1        1        2 ar
   2        2        3 ar
   3        2        4 1
   4        4        5 1
   5        5        6 1
   6        6        7 ar
   7        7        8 1
   8        7        9 ar
   9        9       10 1
  10        9       11 ar
  11       11       12 ar
  12       12       13 1
  13       12       14 ar
  14       14        6 ar
  15       14       15 1
  16       15        4 2
  17       15       16 1
  18       11       17 1

@<TRIPOS>MOLECULE

  17   18
SMALL
USER_CHARGES
@<TRIPOS>ATOM
   1 O1           0.3750     1.6682     0.1483 O.co2        1    LIG   0.0000
   2 C2           1.0000     1.0000     1.0000 C.2          1    LIG   0.0000
   3 O3           0.3950     0.3532     1.8244 O.co2        1    LIG  -1.0000
   4 C4           2.4524     1.0000     1.0000 C.2          1    LIG   0.0000
   5 S5           3.4261     2.2944     0.4801 S.3          1    LIG   0.0000
   6 C6           4.9176     1.5369     0.7772 C.ar         1    LIG   0.0000
   7 C7           6.1320     2.1524     0.5301 C.ar         1    LIG   0.0000
   8 F8           6.2119     3.3875     0.0380 F            1    LIG   0.0000
   9 C9           7.2513     1.3963     0.8287 C.ar         1    LIG   0.0000
  10 Cl10         8.8254     2.1653     0.5191 Cl           1    LIG   0.0000
  11 C11          7.1101     0.1100     1.3409 C.ar         1    LIG   0.0000
  12 C12          5.8489    -0.4357     1.5620 C.ar         1    LIG   0.0000
  13 Cl13         5.8255    -2.0908     2.2197 Cl           1    LIG   0.0000
  14 C14          4.6819     0.2783     1.2814 C.ar         1    LIG   0.0000
  15 C15          3.2877    -0.0007     1.3975 C.2          1    LIG   0.0000
  16 Cl16         2.5825    -1.5184     2.0058 Cl           1    LIG   0.0000
  17 H            7.9253    -0.4291     1.5528 H            1    LIG   0.0000
@<TRIPOS>BOND
   1        1        2 ar
   2        2        3 ar
   3        2        4 1
   4        4        5 1
   5        5        6 1
   6        6        7 ar
   7        7        8 1
   8        7        9 ar
   9        9       10 1
  10        9       11 ar
  11       11       12 ar
  12       12       13 1
  13       12       14 ar
  14       14        6 ar
  15       14       15 1
  16       15        4 2
  17       15       16 1
  18       11       17 1

@<TRIPOS>MOLECULE

  17   18
SMALL
USER_CHARGES
@<TRIPOS>ATOM
   1 O1           0.3750     1.6682     0.1483 O.co2        1    LIG   0.0000
   2 C2           1.0000     1.0000     1.0000 C.2          1    LIG   0.0000
   3 O3           0.3950     0.3532     1.8244 O.co2        1    LIG  -1.0000
   4 C4           2.4524     1.0000     1.0000 C.2          1    LIG   0.0000
   5 S5           3.4261     1.1969    -0.3809 S.3          1    LIG   0.0000
   6 C6           4.9176     1.0755     0.4236 C.ar         1    LIG   0.0000
   7 C7           6.1320     1.1693    -0.2329 C.ar         1    LIG   0.0000
   8 F8           6.2119     1.3606    -1.5486 F            1    LIG   0.0000
   9 C9           7.2513     1.0498     0.5711 C.ar         1    LIG   0.0000
  10 Cl10         8.8254     1.1661    -0.2496 Cl           1    LIG   0.0000
  11 C11          7.1101     0.8502     1.9412 C.ar         1    LIG   0.0000
  12 C12          5.8489     0.7688     2.5243 C.ar         1    LIG   0.0000
  13 Cl13         5.8255     0.5109     4.2866 Cl           1    LIG   0.0000
  14 C14          4.6819     0.8829     1.7658 C.ar         1    LIG   0.0000
  15 C15          3.2877     0.8439     2.0654 C.2          1    LIG   0.0000
  16 Cl16         2.5825     0.6119     3.6839 Cl           1    LIG   0.0000
  17 H            7.9253     0.7642     2.5140 H            1    LIG   0.0000
@<TRIPOS>BOND
   1        1        2 ar
   2        2        3 ar
   3        2        4 1
   4        4        5 1
   5        5        6 1
   6        6        7 ar
   7        7        8 1
   8        7        9 ar
   9        9       10 1
  10        9       11 ar
  11       11       12 ar
  12       12       13 1
  13       12       14 ar
  14       14        6 ar
  15       14       15 1
  16       15        4 2
  17       15       16 1
  18       11       17 1

@<TRIPOS>MOLECULE

  17   18
SMALL
USER_CHARGES
@<TRIPOS>ATOM
   1 O1           0.3750     1.6682     0.1483 O.co2        1    LIG   0.0000
   2 C2           1.0000     1.0000     1.0000 C.2          1    LIG   0.0000
   3 O3           0.3950     0.3532     1.8244 O.co2        1    LIG  -1.0000
   4 C4           2.4524     1.0000     1.0000 C.2          1    LIG   0.0000
   5 S5           3.4261     2.3809     1.1969 S.3          1    LIG   0.0000
   6 C6           4.9176     1.5764     1.0755 C.ar         1    LIG   0.0000
   7 C7           6.1320     2.2329     1.1693 C.ar         1    LIG   0.0000
   8 F8           6.2119     3.5486     1.3606 F            1    LIG   0.0000
   9 C9           7.2513     1.4289     1.0498 C.ar         1    LIG   0.0000
  10 Cl10         8.8254     2.2496     1.1661 Cl           1    LIG   0.0000
  11 C11          7.1101     0.0588     0.8502 C.ar         1    LIG   0.0000
  12 C12          5.8489    -0.5243     0.7688 C.ar         1    LIG   0.0000
  13 Cl13         5.8255    -2.2866     0.5109 Cl           1    LIG   0.0000
  14 C14          4.6819     0.2342     0.8829 C.ar         1    LIG   0.0000
  15 C15          3.2877    -0.0654     0.8439 C.2          1    LIG   0.0000
  16 Cl16         2.5825    -1.6839     0.6119 Cl           1    LIG   0.0000
  17 H            7.9253    -0.5140     0.7642 H            1    LIG   0.0000
@<TRIPOS>BOND
   1        1        2 ar
   2        2        3 ar
   3        2        4 1
   4        4        5 1
   5        5        6 1
   6        6        7 ar
   7        7        8 1
   8        7        9 ar
   9        9       10 1
  10        9       11 ar
  11       11       12 ar
  12       12       13 1
  13       12       14 ar
  14       14        6 ar
  15       14       15 1
  16       15        4 2
  17       15       16 1
  18       11       17 1

@<TRIPOS>MOLECULE

  17   18
SMALL
USER_CHARGES
@<TRIPOS>ATOM
   1 O1           0.3750     1.6682     0.1483 O.co2        1    LIG   0.0000
   2 C2           1.0000     1.0000     1.0000 C.2          1    LIG   0.0000
   3 O3           0.3950     0.3532     1.8244 O.co2        1    LIG  -1.0000
   4 C4           2.4524     1.0000     1.0000 C.2          1    LIG   0.0000
   5 S5           3.4261     2.2303     1.6573 S.3          1    LIG   0.0000
   6 C6           4.9176     1.5158     1.2681 C.ar         1    LIG   0.0000
   7 C7           6.1320     2.1007     1.5808 C.ar         1    LIG   0.0000
   8 F8           6.2119     3.2716     2.2105 F            1    LIG   0.0000
   9 C9           7.2513     1.3860     1.1935 C.ar         1    LIG   0.0000
  10 Cl10         8.8254     2.1174     1.5835 Cl           1    LIG   0.0000
  11 C11          7.1101     0.1668     0.5374 C.ar         1    LIG   0.0000
  12 C12          5.8489    -0.3534     0.2614 C.ar         1    LIG   0.0000
  13 Cl13         5.8255    -1.9211    -0.5837 Cl           1    LIG   0.0000
  14 C14          4.6819     0.3205     0.6280 C.ar         1    LIG   0.0000
  15 C15          3.2877     0.0523     0.4889 C.2          1    LIG   0.0000
  16 Cl16         2.5825    -1.3892    -0.2827 Cl           1    LIG   0.0000
  17 H            7.9253    -0.3421     0.2606 H            1    LIG   0.0000
@<TRIPOS>BOND
   1        1        2 ar
   2        2        3 ar
   3        2        4 1
   4        4        5 1
   5        5        6 1
   6        6        7 ar
   7        7        8 1
   8        7        9 ar
   9        9       10 1
  10        9       11 ar
  11       11       12 ar
  12       12       13 1
  13       12       14 ar
  14       14        6 ar
  15       14       15 1
  16       15        4 2
  17       15       16 1
  18       11       17 1

@<TRIPOS>MOLECULE

  17   18
SMALL
USER_CHARGES
@<TRIPOS>ATOM
   1 O1           0.3750     1.6682     0.1483 O.co2        1    LIG   0.0000
   2 C2           1.0000     1.0000     1.0000 C.2          1    LIG   0.0000
   3 O3           0.3950     0.3532     1.8244 O.co2        1    LIG  -1.0000
   4 C4           2.4524     1.0000     1.0000 C.2          1    LIG   0.0000
   5 S5           3.4261     2.3650     0.7127 S.3          1    LIG   0.0000
   6 C6           4.9176     1.5675     0.8738 C.ar         1    LIG   0.0000
   7 C7           6.1320     2.2165     0.7374 C.ar         1    LIG   0.0000
   8 F8           6.2119     3.5182     0.4672 F            1    LIG   0.0000
   9 C9           7.2513     1.4200     0.9002 C.ar         1    LIG   0.0000
  10 Cl10         8.8254     2.2311     0.7287 Cl           1    LIG   0.0000
  11 C11          7.1101     0.0643     1.1812 C.ar         1    LIG   0.0000
  12 C12          5.8489    -0.5115     1.3041 C.ar         1    LIG   0.0000
  13 Cl13         5.8255    -2.2556     1.6645 Cl           1    LIG   0.0000
  14 C14          4.6819     0.2403     1.1518 C.ar         1    LIG   0.0000
  15 C15          3.2877    -0.0545     1.2177 C.2          1    LIG   0.0000
  16 Cl16         2.5825    -1.6547     1.5532 Cl           1    LIG   0.0000
  17 H            7.9253    -0.5034     1.2962 H            1    LIG   0.0000
@<TRIPOS>BOND
   1        1        2 ar
   2        2        3 ar
   3        2        4 1
   4        4        5 1
   5        5        6 1
   6        6        7 ar
   7        7        8 1
   8        7        9 ar
   9        9       10 1
  10        9       11 ar
  11       11       12 ar
  12       12       13 1
  13       12       14 ar
  14       14        6 ar
  15       14       15 1
  16       15        4 2
  17       15       16 1
  18       11       17 1

@<TRIPOS>MOLECULE

  17   18
SMALL
USER_CHARGES
@<TRIPOS>ATOM
   1 O1           0.3750     1.6682     0.1483 O.co2        1    LIG   0.0000
   2 C2           1.0000     1.0000     1.0000 C.2          1    LIG   0.0000
   3 O3           0.3950     0.3532     1.8244 O.co2        1    LIG  -1.0000
   4 C4           2.4524     1.0000     1.0000 C.2          1    LIG   0.0000
   5 S5           3.4261     2.0974     1.8610 S.3          1    LIG   0.0000
   6 C6           4.9176     1.4614     1.3536 C.ar         1    LIG   0.0000
   7 C7           6.1320     1.9831     1.7631 C.ar         1    LIG   0.0000
   8 F8           6.2119     3.0268     2.5866 F            1    LIG   0.0000
   9 C9           7.2513     1.3465     1.2576 C.ar         1    LIG   0.0000
  10 Cl10         8.8254     1.9991     1.7687 Cl           1    LIG   0.0000
  11 C11          7.1101     0.2598     0.3997 C.ar         1    LIG   0.0000
  12 C12          5.8489    -0.2045     0.0376 C.ar         1    LIG   0.0000
  13 Cl13         5.8255    -1.6017    -1.0669 Cl           1    LIG   0.0000
  14 C14          4.6819     0.3954     0.5157 C.ar         1    LIG   0.0000
  15 C15          3.2877     0.1554     0.3321 C.2          1    LIG   0.0000
  16 Cl16         2.5825    -1.1302    -0.6781 Cl           1    LIG   0.0000
  17 H            7.9253    -0.1933     0.0388 H            1    LIG   0.0000
@<TRIPOS>BOND
   1        1        2 ar
   2        2        3 ar
   3        2        4 1
   4        4        5 1
   5        5        6 1
   6        6        7 ar
   7        7        8 1
   8        7        9 ar
   9        9       10 1
  10        9       11 ar
  11       11       12 ar
  12       12       13 1
  13       12       14 ar
  14       14        6 ar
  15       14       15 1
  16       15        4 2
  17       15       16 1
  18       11       17 1

@<TRIPOS>MOLECULE

  17   18
SMALL
USER_CHARGES
@<TRIPOS>ATOM
   1 O1           0.3750     1.6682     0.1483 O.co2        1    LIG   0.0000
   2 C2           1.0000     1.0000     1.0000 C.2          1    LIG   0.0000
   3 O3           0.3950     0.3532     1.8244 O.co2        1    LIG  -1.0000
   4 C4           2.4524     1.0000     1.0000 C.2          1    LIG   0.0000
   5 S5           3.4261     0.4801    -0.2944 S.3          1    LIG   0.0000
   6 C6           4.9176     0.7772     0.4631 C.ar         1    LIG   0.0000
   7 C7           6.1320     0.5301    -0.1524 C.ar         1    LIG   0.0000
   8 F8           6.2119     0.0380    -1.3875 F            1    LIG   0.0000
   9 C9           7.2513     0.8287     0.6037 C.ar         1    LIG   0.0000
  10 Cl10         8.8254     0.5191    -0.1653 Cl           1    LIG   0.0000
  11 C11          7.1101     1.3409     1.8900 C.ar         1    LIG   0.0000
  12 C12          5.8489     1.5620     2.4357 C.ar         1    LIG   0.0000
  13 Cl13         5.8255     2.2197     4.0908 Cl           1    LIG   0.0000
  14 C14          4.6819     1.2814     1.7217 C.ar         1    LIG   0.0000
  15 C15          3.2877     1.3975     2.0007 C.2          1    LIG   0.0000
  16 Cl16         2.5825     2.0058     3.5184 Cl           1    LIG   0.0000
  17 H            7.9253     1.5528     2.4291 H            1    LIG   0.0000
@<TRIPOS>BOND
   1        1        2 ar
   2        2        3 ar
   3        2        4 1
   4        4        5 1
   5        5        6 1
   6        6        7 ar
   7        7        8 1
   8        7        9 ar
   9        9       10 1
  10        9       11 ar
  11       11       12 ar
  12       12       13 1
  13       12       14 ar
  14       14        6 ar
  15       14       15 1
  16       15        4 2
  17       15       16 1
  18       11       17 1

@<TRIPOS>MOLECULE

  17   18
SMALL
USER_CHARGES
@<TRIPOS>ATOM
   1 O1           0.3750     1.6682     0.1483 O.co2        1    LIG   0.0000
   2 C2           1.0000     1.0000     1.0000 C.2          1    LIG   0.0000
   3 O3           0.3950     0.3532     1.8244 O.co2        1    LIG  -1.0000
   4 C4           2.4524     1.0000     1.0000 C.2          1    LIG   0.0000
   5 S5           3.4261     0.9541    -0.3941 S.3          1    LIG   0.0000
   6 C6           4.9176     0.9742     0.4192 C.ar         1    LIG   0.0000
   7 C7           6.1320     0.9526    -0.2436 C.ar         1    LIG   0.0000
   8 F8           6.2119     0.9126    -1.5725 F            1    LIG   0.0000
   9 C9           7.2513     0.9746     0.5690 C.ar         1    LIG   0.0000
  10 Cl10         8.8254     0.9466    -0.2595 Cl           1    LIG   0.0000
  11 C11          7.1101     1.0159     1.9529 C.ar         1    LIG   0.0000
  12 C12          5.8489     1.0370     2.5413 C.ar         1    LIG   0.0000
  13 Cl13         5.8255     1.0890     4.3216 Cl           1    LIG   0.0000
  14 C14          4.6819     1.0176     1.7745 C.ar         1    LIG   0.0000
  15 C15          3.2877     1.0313     2.0763 C.2          1    LIG   0.0000
  16 Cl16         2.5825     1.0838     3.7105 Cl           1    LIG   0.0000
  17 H            7.9253     1.0307     2.5320 H            1    LIG   0.0000
@<TRIPOS>BOND
   1        1        2 ar
   2        2        3 ar
   3        2        4 1
   4        4        5 1
   5        5        6 1
   6        6        7 ar
   7        7        8 1
   8        7        9 ar
   9        9       10 1
  10        9       11 ar
  11       11       12 ar
  12       12       13 1
  13       12       14 ar
  14       14        6 ar
  15       14       15 1
  16       15        4 2
  17       15       16 1
  18       11       17 1

@<TRIPOS>MOLECULE

  17   18
SMALL
USER_CHARGES
@<TRIPOS>ATOM
   1 O1           0.3750     1.6682     0.1483 O.co2        1    LIG   0.0000
   2 C2           1.0000     1.0000     1.0000 C.2          1    LIG   0.0000
   3 O3           0.3950     0.3532     1.8244 O.co2        1    LIG  -1.0000
   4 C4           2.4524     1.0000     1.0000 C.2          1    LIG   0.0000
   5 S5           3.4261     0.0687    -0.0385 S.3          1    LIG   0.0000
   6 C6           4.9176     0.6070     0.5717 C.ar         1    LIG   0.0000
   7 C7           6.1320     0.1643     0.0778 C.ar         1    LIG   0.0000
   8 F8           6.2119    -0.7205    -0.9145 F            1    LIG   0.0000
   9 C9           7.2513     0.7035     0.6862 C.ar         1    LIG   0.0000
  10 Cl10         8.8254     0.1495     0.0695 Cl           1    LIG   0.0000
  11 C11          7.1101     1.6247     1.7197 C.ar         1    LIG   0.0000
  12 C12          5.8489     2.0191     2.1569 C.ar         1    LIG   0.0000
  13 Cl13         5.8255     3.2033     3.4872 Cl           1    LIG   0.0000
  14 C14          4.6819     1.5113     1.5820 C.ar         1    LIG   0.0000
  15 C15          3.2877     1.7158     1.8044 C.2          1    LIG   0.0000
  16 Cl16         2.5825     2.8065     3.0225 Cl           1    LIG   0.0000
  17 H            7.9253     2.0082     2.1538 H            1    LIG   0.0000
@<TRIPOS>BOND
   1        1        2 ar
   2        2        3 ar
   3        2        4 1
   4        4        5 1
   5        5        6 1
   6        6        7 ar
   7        7        8 1
   8        7        9 ar
   9        9       10 1
  10        9       11 ar
  11       11       12 ar
  12       12       13 1
  13       12       14 ar
  14       14        6 ar
  15       14       15 1
  16       15        4 2
  17       15       16 1
  18       11       17 1

