@<TRIPOS>MOLECULE
*****
 17 18 0 0 0
SMALL
USER_CHARGES

@<TRIPOS>ATOM
      1 O1          0.3750    1.6682    0.1483 O.2     1  LIG1        0.0000
      2 C2          1.0000    1.0000    1.0000 C.3     1  LIG1        0.0000
      3 O3          0.3950    0.3532    1.8244 O.2     1  LIG1       -1.0000
      4 C4          2.4524    1.0000    1.0000 C.2     1  LIG1        0.0000
      5 S5          3.4261    0.9541   -0.3941 S.3     1  LIG1        0.0000
      6 C6          4.9176    0.9742    0.4192 C.3     1  LIG1        0.0000
      7 C7          6.1320    0.9526   -0.2436 C.3     1  LIG1        0.0000
      8 F8          6.2119    0.9126   -1.5725 F       1  LIG1        0.0000
      9 C9          7.2513    0.9746    0.5690 C.3     1  LIG1        0.0000
     10 Cl10        8.8254    0.9466   -0.2595 Cl      1  LIG1        0.0000
     11 C11         7.1101    1.0159    1.9529 C.3     1  LIG1        0.0000
     12 C12         5.8489    1.0370    2.5413 C.3     1  LIG1        0.0000
     13 Cl13        5.8255    1.0890    4.3216 Cl      1  LIG1        0.0000
     14 C14         4.6819    1.0176    1.7745 C.3     1  LIG1        0.0000
     15 C15         3.2877    1.0313    2.0763 C.2     1  LIG1        0.0000
     16 Cl16        2.5825    1.0838    3.7105 Cl      1  LIG1        0.0000
     17 H           7.9253    1.0307    2.5320 H       1  LIG1        0.0000
@<TRIPOS>UNITY_ATOM_ATTR
1 1
charge -1
@<TRIPOS>BOND
     1     1     2    1
     2     2     3    2
     3     2     4    1
     4     4     5    1
     5     5     6    1
     6     6     7   ar
     7     7     8    1
     8     7     9   ar
     9     9    10    1
    10     9    11   ar
    11    11    12   ar
    12    12    13    1
    13    12    14   ar
    14    14     6   ar
    15    14    15    1
    16    15     4    2
    17    15    16    1
    18    11    17    1
