@<TRIPOS>MOLECULE
*****
 17 18 0 0 0
SMALL
USER_CHARGES

@<TRIPOS>ATOM
      1 O1          0.3750    1.6682    0.1483 O.2     1  LIG1        0.0000
      2 C2          1.0000    1.0000    1.0000 C.3     1  LIG1        0.0000
      3 O3          0.3950    0.3532    1.8244 O.2     1  LIG1       -1.0000
      4 C4          2.4524    1.0000    1.0000 C.2     1  LIG1        0.0000
      5 S5          3.4261    2.0974    1.8610 S.3     1  LIG1        0.0000
      6 C6          4.9176    1.4614    1.3536 C.3     1  LIG1        0.0000
      7 C7          6.1320    1.9831    1.7631 C.3     1  LIG1        0.0000
      8 F8          6.2119    3.0268    2.5866 F       1  LIG1        0.0000
      9 C9          7.2513    1.3465    1.2576 C.3     1  LIG1        0.0000
     10 Cl10        8.8254    1.9991    1.7687 Cl      1  LIG1        0.0000
     11 C11         7.1101    0.2598    0.3997 C.3     1  LIG1        0.0000
     12 C12         5.8489   -0.2045    0.0376 C.3     1  LIG1        0.0000
     13 Cl13        5.8255   -1.6017   -1.0669 Cl      1  LIG1        0.0000
     14 C14         4.6819    0.3954    0.5157 C.3     1  LIG1        0.0000
     15 C15         3.2877    0.1554    0.3321 C.2     1  LIG1        0.0000
     16 Cl16        2.5825   -1.1302   -0.6781 Cl      1  LIG1        0.0000
     17 H           7.9253   -0.1933    0.0388 H       1  LIG1        0.0000
@<TRIPOS>UNITY_ATOM_ATTR
1 1
charge -1
@<TRIPOS>BOND
     1     1     2    1
     2     2     3    2
     3     2     4    1
     4     4     5    1
     5     5     6    1
     6     6     7   ar
     7     7     8    1
     8     7     9   ar
     9     9    10    1
    10     9    11   ar
    11    11    12   ar
    12    12    13    1
    13    12    14   ar
    14    14     6   ar
    15    14    15    1
    16    15     4    2
    17    15    16    1
    18    11    17    1
