@<TRIPOS>MOLECULE
*****
 17 18 0 0 0
SMALL
USER_CHARGES

@<TRIPOS>ATOM
      1 O1          0.3750    1.6682    0.1483 O.2     1  LIG1        0.0000
      2 C2          1.0000    1.0000    1.0000 C.3     1  LIG1        0.0000
      3 O3          0.3950    0.3532    1.8244 O.2     1  LIG1       -1.0000
      4 C4          2.4524    1.0000    1.0000 C.2     1  LIG1        0.0000
      5 S5          3.4261    0.4801   -0.2944 S.3     1  LIG1        0.0000
      6 C6          4.9176    0.7772    0.4631 C.3     1  LIG1        0.0000
      7 C7          6.1320    0.5301   -0.1524 C.3     1  LIG1        0.0000
      8 F8          6.2119    0.0380   -1.3875 F       1  LIG1        0.0000
      9 C9          7.2513    0.8287    0.6037 C.3     1  LIG1        0.0000
     10 Cl10        8.8254    0.5191   -0.1653 Cl      1  LIG1        0.0000
     11 C11         7.1101    1.3409    1.8900 C.3     1  LIG1        0.0000
     12 C12         5.8489    1.5620    2.4357 C.3     1  LIG1        0.0000
     13 Cl13        5.8255    2.2197    4.0908 Cl      1  LIG1        0.0000
     14 C14         4.6819    1.2814    1.7217 C.3     1  LIG1        0.0000
     15 C15         3.2877    1.3975    2.0007 C.2     1  LIG1        0.0000
     16 Cl16        2.5825    2.0058    3.5184 Cl      1  LIG1        0.0000
     17 H           7.9253    1.5528    2.4291 H       1  LIG1        0.0000
@<TRIPOS>UNITY_ATOM_ATTR
1 1
charge -1
@<TRIPOS>BOND
     1     1     2    1
     2     2     3    2
     3     2     4    1
     4     4     5    1
     5     5     6    1
     6     6     7   ar
     7     7     8    1
     8     7     9   ar
     9     9    10    1
    10     9    11   ar
    11    11    12   ar
    12    12    13    1
    13    12    14   ar
    14    14     6   ar
    15    14    15    1
    16    15     4    2
    17    15    16    1
    18    11    17    1
