@<TRIPOS>MOLECULE
*****
 17 18 0 0 0
SMALL
USER_CHARGES

@<TRIPOS>ATOM
      1 O1          0.3750    1.6682    0.1483 O.2     1  LIG1        0.0000
      2 C2          1.0000    1.0000    1.0000 C.3     1  LIG1        0.0000
      3 O3          0.3950    0.3532    1.8244 O.2     1  LIG1       -1.0000
      4 C4          2.4524    1.0000    1.0000 C.2     1  LIG1        0.0000
      5 S5          3.4261    2.3809    1.1969 S.3     1  LIG1        0.0000
      6 C6          4.9176    1.5764    1.0755 C.3     1  LIG1        0.0000
      7 C7          6.1320    2.2329    1.1693 C.3     1  LIG1        0.0000
      8 F8          6.2119    3.5486    1.3606 F       1  LIG1        0.0000
      9 C9          7.2513    1.4289    1.0498 C.3     1  LIG1        0.0000
     10 Cl10        8.8254    2.2496    1.1661 Cl      1  LIG1        0.0000
     11 C11         7.1101    0.0588    0.8502 C.3     1  LIG1        0.0000
     12 C12         5.8489   -0.5243    0.7688 C.3     1  LIG1        0.0000
     13 Cl13        5.8255   -2.2866    0.5109 Cl      1  LIG1        0.0000
     14 C14         4.6819    0.2342    0.8829 C.3     1  LIG1        0.0000
     15 C15         3.2877   -0.0654    0.8439 C.2     1  LIG1        0.0000
     16 Cl16        2.5825   -1.6839    0.6119 Cl      1  LIG1        0.0000
     17 H           7.9253   -0.5140    0.7642 H       1  LIG1        0.0000
@<TRIPOS>UNITY_ATOM_ATTR
1 1
charge -1
@<TRIPOS>BOND
     1     1     2    1
     2     2     3    2
     3     2     4    1
     4     4     5    1
     5     5     6    1
     6     6     7   ar
     7     7     8    1
     8     7     9   ar
     9     9    10    1
    10     9    11   ar
    11    11    12   ar
    12    12    13    1
    13    12    14   ar
    14    14     6   ar
    15    14    15    1
    16    15     4    2
    17    15    16    1
    18    11    17    1
