@<TRIPOS>MOLECULE

  48   52
SMALL
USER_CHARGES
@<TRIPOS>ATOM
   1 C1          -2.3531     1.2155     0.0274 C.3          1    LIG   0.0000
   2 O2          -1.1948     2.0371     0.0243 O.3          1    LIG   0.0000
   3 C3          -0.0161     1.3796     0.0085 C.ar         1    LIG   0.0000
   4 C4           1.1722     2.1028     0.0043 C.ar         1    LIG   0.0000
   5 C5           2.3826     1.4171    -0.0101 C.ar         1    LIG   0.0000
   6 C6           2.3941     0.0259    -0.0202 C.ar         1    LIG   0.0000
   7 N7           3.6201    -0.6561    -0.0358 N.am         1    LIG   0.0000
   8 C8           4.2275    -0.9913    -1.2576 C.2          1    LIG   0.0000
   9 O9           3.6749    -0.6965    -2.3028 O.2          1    LIG   0.0000
  10 C10          5.4967    -1.6943    -1.2270 C.ar         1    LIG   0.0000
  11 C11          6.3221    -1.7550    -2.3461 C.ar         1    LIG   0.0000
  12 C12          7.5254    -2.4498    -2.3044 C.ar         1    LIG   0.0000
  13 C13          7.9148    -3.0985    -1.1371 C.ar         1    LIG   0.0000
  14 C14          7.0926    -3.0465    -0.0153 C.ar         1    LIG   0.0000
  15 C15          5.9004    -2.3430    -0.0654 C.ar         1    LIG   0.0000
  16 N16          5.0962    -2.2696     1.0783 N.pl3        1    LIG   0.0000
  17 C17          4.2757    -1.0573     1.2205 C.3          1    LIG   0.0000
  18 C18          5.2038     0.0553     1.6810 C.2          1    LIG   0.0000
  19 C19          6.0105     0.8247     0.9038 C.2          1    LIG   0.0000
  20 N20          6.7551     1.7599     1.5765 N.2          1    LIG   0.0000
  21 C21          6.5811     1.7881     2.8769 C.2          1    LIG   0.0000
  22 C22          7.2268     2.6607     3.8373 C.ar         1    LIG   0.0000
  23 C23          6.8993     2.5194     5.1814 C.ar         1    LIG   0.0000
  24 C24          7.5146     3.3526     6.1088 C.ar         1    LIG   0.0000
  25 C25          8.4365     4.3037     5.6846 C.ar         1    LIG   0.0000
  26 C26          8.7217     4.3954     4.3268 C.ar         1    LIG   0.0000
  27 N27          8.1186     3.5832     3.4458 N.ar         1    LIG   0.0000
  28 S28          5.4382     0.5889     3.2763 S.3          1    LIG   0.0000
  29 C29          1.2007    -0.6882    -0.0158 C.ar         1    LIG   0.0000
  30 C30         -0.0141    -0.0115    -0.0012 C.ar         1    LIG   0.0000
  31 H            3.5779    -1.2133     1.9196 H            1    LIG   0.0000
  32 H           -3.1703     1.7916     0.0395 H            1    LIG   0.0000
  33 H           -2.3594     0.6452    -0.7939 H            1    LIG   0.0000
  34 H           -2.3451     0.6313     0.8390 H            1    LIG   0.0000
  35 H            1.1565     3.1027     0.0115 H            1    LIG   0.0000
  36 H            3.2445     1.9242    -0.0133 H            1    LIG   0.0000
  37 H            6.0465    -1.2936    -3.1894 H            1    LIG   0.0000
  38 H            8.1114    -2.4834    -3.1140 H            1    LIG   0.0000
  39 H            8.7799    -3.5990    -1.1041 H            1    LIG   0.0000
  40 H            7.3621    -3.5161     0.8255 H            1    LIG   0.0000
  41 H            5.0806    -3.0007     1.7605 H            1    LIG   0.0000
  42 H            6.0579     0.7167    -0.0892 H            1    LIG   0.0000
  43 H            6.2347     1.8323     5.4750 H            1    LIG   0.0000
  44 H            7.2944     3.2682     7.0806 H            1    LIG   0.0000
  45 H            8.8848     4.9089     6.3423 H            1    LIG   0.0000
  46 H            9.3824     5.0731     4.0041 H            1    LIG   0.0000
  47 H            1.2161    -1.6881    -0.0231 H            1    LIG   0.0000
  48 H           -0.8759    -0.5187     0.0022 H            1    LIG   0.0000
@<TRIPOS>BOND
   1        1        2 1
   2        2        3 1
   3        3        4 ar
   4        4        5 ar
   5        5        6 ar
   6        6        7 1
   7        7        8 am
   8        8        9 2
   9        8       10 1
  10       10       11 ar
  11       11       12 ar
  12       12       13 ar
  13       13       14 ar
  14       14       15 ar
  15       15       10 ar
  16       15       16 1
  17       16       17 1
  18       17        7 1
  19       17       18 1
  20       18       19 2
  21       19       20 1
  22       20       21 2
  23       21       22 1
  24       22       23 ar
  25       23       24 ar
  26       24       25 ar
  27       25       26 ar
  28       26       27 ar
  29       27       22 ar
  30       21       28 1
  31       28       18 1
  32        6       29 ar
  33       29       30 ar
  34       30        3 ar
  35       17       31 1
  36        1       32 1
  37        1       33 1
  38        1       34 1
  39        4       35 1
  40        5       36 1
  41       11       37 1
  42       12       38 1
  43       13       39 1
  44       14       40 1
  45       16       41 1
  46       19       42 1
  47       23       43 1
  48       24       44 1
  49       25       45 1
  50       26       46 1
  51       29       47 1
  52       30       48 1

@<TRIPOS>MOLECULE

  48   52
SMALL
USER_CHARGES
@<TRIPOS>ATOM
   1 C1          -2.3531     1.2155     0.0274 C.3          1    LIG   0.0000
   2 O2          -1.1948     2.0371     0.0243 O.3          1    LIG   0.0000
   3 C3          -0.0161     1.3796     0.0085 C.ar         1    LIG   0.0000
   4 C4           1.1722     2.1028     0.0043 C.ar         1    LIG   0.0000
   5 C5           2.3826     1.4171    -0.0101 C.ar         1    LIG   0.0000
   6 C6           2.3941     0.0259    -0.0202 C.ar         1    LIG   0.0000
   7 N7           3.6201    -0.6561    -0.0358 N.am         1    LIG   0.0000
   8 C8           4.2275    -0.9913    -1.2576 C.2          1    LIG   0.0000
   9 O9           3.6749    -0.6965    -2.3028 O.2          1    LIG   0.0000
  10 C10          5.4967    -1.6943    -1.2270 C.ar         1    LIG   0.0000
  11 C11          6.3221    -1.7550    -2.3461 C.ar         1    LIG   0.0000
  12 C12          7.5254    -2.4498    -2.3044 C.ar         1    LIG   0.0000
  13 C13          7.9148    -3.0985    -1.1371 C.ar         1    LIG   0.0000
  14 C14          7.0926    -3.0465    -0.0153 C.ar         1    LIG   0.0000
  15 C15          5.9004    -2.3430    -0.0654 C.ar         1    LIG   0.0000
  16 N16          5.0962    -2.2696     1.0783 N.pl3        1    LIG   0.0000
  17 C17          4.2757    -1.0573     1.2205 C.3          1    LIG   0.0000
  18 C18          5.2038     0.0553     1.6810 C.2          1    LIG   0.0000
  19 C19          5.2637     0.6136     2.9186 C.2          1    LIG   0.0000
  20 N20          6.1936     1.6109     3.0679 N.2          1    LIG   0.0000
  21 C21          6.9024     1.8840     1.9978 C.2          1    LIG   0.0000
  22 C22          7.9465     2.8796     1.8584 C.ar         1    LIG   0.0000
  23 C23          8.5731     3.0099     0.6237 C.ar         1    LIG   0.0000
  24 C24          9.5755     3.9627     0.4820 C.ar         1    LIG   0.0000
  25 C25          9.9331     4.7613     1.5630 C.ar         1    LIG   0.0000
  26 C26          9.2688     4.5828     2.7713 C.ar         1    LIG   0.0000
  27 N27          8.3039     3.6586     2.8903 N.ar         1    LIG   0.0000
  28 S28          6.3796     0.8501     0.7482 S.3          1    LIG   0.0000
  29 C29          1.2007    -0.6882    -0.0158 C.ar         1    LIG   0.0000
  30 C30         -0.0141    -0.0115    -0.0012 C.ar         1    LIG   0.0000
  31 H            3.5779    -1.2133     1.9196 H            1    LIG   0.0000
  32 H           -3.1703     1.7916     0.0395 H            1    LIG   0.0000
  33 H           -2.3594     0.6452    -0.7939 H            1    LIG   0.0000
  34 H           -2.3451     0.6313     0.8390 H            1    LIG   0.0000
  35 H            1.1565     3.1027     0.0115 H            1    LIG   0.0000
  36 H            3.2445     1.9242    -0.0133 H            1    LIG   0.0000
  37 H            6.0465    -1.2936    -3.1894 H            1    LIG   0.0000
  38 H            8.1114    -2.4834    -3.1140 H            1    LIG   0.0000
  39 H            8.7799    -3.5990    -1.1041 H            1    LIG   0.0000
  40 H            7.3621    -3.5161     0.8255 H            1    LIG   0.0000
  41 H            5.0806    -3.0007     1.7605 H            1    LIG   0.0000
  42 H            4.6713     0.3180     3.6681 H            1    LIG   0.0000
  43 H            8.3080     2.4299    -0.1466 H            1    LIG   0.0000
  44 H           10.0392     4.0739    -0.3970 H            1    LIG   0.0000
  45 H           10.6531     5.4495     1.4731 H            1    LIG   0.0000
  46 H            9.5126     5.1487     3.5590 H            1    LIG   0.0000
  47 H            1.2161    -1.6881    -0.0231 H            1    LIG   0.0000
  48 H           -0.8759    -0.5187     0.0022 H            1    LIG   0.0000
@<TRIPOS>BOND
   1        1        2 1
   2        2        3 1
   3        3        4 ar
   4        4        5 ar
   5        5        6 ar
   6        6        7 1
   7        7        8 am
   8        8        9 2
   9        8       10 1
  10       10       11 ar
  11       11       12 ar
  12       12       13 ar
  13       13       14 ar
  14       14       15 ar
  15       15       10 ar
  16       15       16 1
  17       16       17 1
  18       17        7 1
  19       17       18 1
  20       18       19 2
  21       19       20 1
  22       20       21 2
  23       21       22 1
  24       22       23 ar
  25       23       24 ar
  26       24       25 ar
  27       25       26 ar
  28       26       27 ar
  29       27       22 ar
  30       21       28 1
  31       28       18 1
  32        6       29 ar
  33       29       30 ar
  34       30        3 ar
  35       17       31 1
  36        1       32 1
  37        1       33 1
  38        1       34 1
  39        4       35 1
  40        5       36 1
  41       11       37 1
  42       12       38 1
  43       13       39 1
  44       14       40 1
  45       16       41 1
  46       19       42 1
  47       23       43 1
  48       24       44 1
  49       25       45 1
  50       26       46 1
  51       29       47 1
  52       30       48 1

@<TRIPOS>MOLECULE

  48   52
SMALL
USER_CHARGES
@<TRIPOS>ATOM
   1 C1          -2.3531     1.2155     0.0274 C.3          1    LIG   0.0000
   2 O2          -1.1948     2.0371     0.0243 O.3          1    LIG   0.0000
   3 C3          -0.0161     1.3796     0.0085 C.ar         1    LIG   0.0000
   4 C4           1.1722     2.1028     0.0043 C.ar         1    LIG   0.0000
   5 C5           2.3826     1.4171    -0.0101 C.ar         1    LIG   0.0000
   6 C6           2.3941     0.0259    -0.0202 C.ar         1    LIG   0.0000
   7 N7           3.6201    -0.6561    -0.0358 N.am         1    LIG   0.0000
   8 C8           4.2487    -1.0087     1.1702 C.2          1    LIG   0.0000
   9 O9           3.7274    -0.7060     2.2291 O.2          1    LIG   0.0000
  10 C10          5.5144    -1.7159     1.1073 C.ar         1    LIG   0.0000
  11 C11          6.0228    -2.3973     2.2094 C.ar         1    LIG   0.0000
  12 C12          7.2465    -3.0528     2.1367 C.ar         1    LIG   0.0000
  13 C13          7.9802    -3.0289     0.9551 C.ar         1    LIG   0.0000
  14 C14          7.4808    -2.3457    -0.1498 C.ar         1    LIG   0.0000
  15 C15          6.2557    -1.7043    -0.0689 C.ar         1    LIG   0.0000
  16 N16          5.7472    -1.0474    -1.1959 N.pl3        1    LIG   0.0000
  17 C17          4.2820    -0.9880    -1.3089 C.3          1    LIG   0.0000
  18 C18          3.8170    -2.3582    -1.7754 C.2          1    LIG   0.0000
  19 C19          4.5972    -3.3983    -2.1710 C.2          1    LIG   0.0000
  20 N20          3.9195    -4.5287    -2.5510 N.2          1    LIG   0.0000
  21 C21          2.6116    -4.4533    -2.4735 C.2          1    LIG   0.0000
  22 C22          1.6449    -5.4805    -2.8068 C.ar         1    LIG   0.0000
  23 C23          0.2937    -5.1887    -2.6554 C.ar         1    LIG   0.0000
  24 C24         -0.6398    -6.1687    -2.9732 C.ar         1    LIG   0.0000
  25 C25         -0.2146    -7.4111    -3.4314 C.ar         1    LIG   0.0000
  26 C26          1.1504    -7.6413    -3.5617 C.ar         1    LIG   0.0000
  27 N27          2.0373    -6.6842    -3.2506 N.ar         1    LIG   0.0000
  28 S28          2.2118    -2.8979    -1.9039 S.3          1    LIG   0.0000
  29 C29          1.2007    -0.6882    -0.0158 C.ar         1    LIG   0.0000
  30 C30         -0.0141    -0.0115    -0.0012 C.ar         1    LIG   0.0000
  31 H            4.0332    -0.3054    -1.9960 H            1    LIG   0.0000
  32 H           -3.1703     1.7916     0.0395 H            1    LIG   0.0000
  33 H           -2.3594     0.6452    -0.7939 H            1    LIG   0.0000
  34 H           -2.3451     0.6313     0.8390 H            1    LIG   0.0000
  35 H            1.1565     3.1027     0.0115 H            1    LIG   0.0000
  36 H            3.2445     1.9242    -0.0133 H            1    LIG   0.0000
  37 H            5.5019    -2.4156     3.0629 H            1    LIG   0.0000
  38 H            7.5997    -3.5417     2.9344 H            1    LIG   0.0000
  39 H            8.8607    -3.4996     0.8999 H            1    LIG   0.0000
  40 H            8.0055    -2.3178    -1.0007 H            1    LIG   0.0000
  41 H            6.3468    -0.6412    -1.8855 H            1    LIG   0.0000
  42 H            5.5956    -3.3433    -2.1842 H            1    LIG   0.0000
  43 H           -0.0006    -4.2920    -2.3246 H            1    LIG   0.0000
  44 H           -1.6167    -5.9805    -2.8722 H            1    LIG   0.0000
  45 H           -0.8768    -8.1239    -3.6624 H            1    LIG   0.0000
  46 H            1.4740    -8.5285    -3.8904 H            1    LIG   0.0000
  47 H            1.2161    -1.6881    -0.0231 H            1    LIG   0.0000
  48 H           -0.8759    -0.5187     0.0022 H            1    LIG   0.0000
@<TRIPOS>BOND
   1        1        2 1
   2        2        3 1
   3        3        4 ar
   4        4        5 ar
   5        5        6 ar
   6        6        7 1
   7        7        8 am
   8        8        9 2
   9        8       10 1
  10       10       11 ar
  11       11       12 ar
  12       12       13 ar
  13       13       14 ar
  14       14       15 ar
  15       15       10 ar
  16       15       16 1
  17       16       17 1
  18       17        7 1
  19       17       18 1
  20       18       19 2
  21       19       20 1
  22       20       21 2
  23       21       22 1
  24       22       23 ar
  25       23       24 ar
  26       24       25 ar
  27       25       26 ar
  28       26       27 ar
  29       27       22 ar
  30       21       28 1
  31       28       18 1
  32        6       29 ar
  33       29       30 ar
  34       30        3 ar
  35       17       31 1
  36        1       32 1
  37        1       33 1
  38        1       34 1
  39        4       35 1
  40        5       36 1
  41       11       37 1
  42       12       38 1
  43       13       39 1
  44       14       40 1
  45       16       41 1
  46       19       42 1
  47       23       43 1
  48       24       44 1
  49       25       45 1
  50       26       46 1
  51       29       47 1
  52       30       48 1

@<TRIPOS>MOLECULE

  48   52
SMALL
USER_CHARGES
@<TRIPOS>ATOM
   1 C1          -2.3531     1.2155     0.0274 C.3          1    LIG   0.0000
   2 O2          -1.1948     2.0371     0.0243 O.3          1    LIG   0.0000
   3 C3          -0.0161     1.3796     0.0085 C.ar         1    LIG   0.0000
   4 C4           1.1722     2.1028     0.0043 C.ar         1    LIG   0.0000
   5 C5           2.3826     1.4171    -0.0101 C.ar         1    LIG   0.0000
   6 C6           2.3941     0.0259    -0.0202 C.ar         1    LIG   0.0000
   7 N7           3.6213    -0.6568    -0.0358 N.am         1    LIG   0.0000
   8 C8           4.2016    -0.9769    -1.2763 C.2          1    LIG   0.0000
   9 O9           3.6511    -0.6288    -2.3068 O.2          1    LIG   0.0000
  10 C10          5.4645    -1.6905    -1.3056 C.ar         1    LIG   0.0000
  11 C11          5.8958    -2.2483    -2.5043 C.ar         1    LIG   0.0000
  12 C12          7.1145    -2.9155    -2.5750 C.ar         1    LIG   0.0000
  13 C13          7.8971    -3.0102    -1.4279 C.ar         1    LIG   0.0000
  14 C14          7.4574    -2.4476    -0.2332 C.ar         1    LIG   0.0000
  15 C15          6.2376    -1.7835    -0.1524 C.ar         1    LIG   0.0000
  16 N16          5.7578    -1.2085     1.0315 N.pl3        1    LIG   0.0000
  17 C17          4.3106    -1.0205     1.2131 C.3          1    LIG   0.0000
  18 C18          4.0765     0.0854     2.2298 C.2          1    LIG   0.0000
  19 C19          3.6474    -0.0564     3.5115 C.2          1    LIG   0.0000
  20 N20          3.5137     1.1117     4.2180 N.2          1    LIG   0.0000
  21 C21          3.8252     2.2048     3.5620 C.2          1    LIG   0.0000
  22 C22          3.7808     3.5702     4.0461 C.ar         1    LIG   0.0000
  23 C23          4.1513     4.5906     3.1769 C.ar         1    LIG   0.0000
  24 C24          4.1112     5.9030     3.6338 C.ar         1    LIG   0.0000
  25 C25          3.7069     6.1733     4.9367 C.ar         1    LIG   0.0000
  26 C26          3.3484     5.1094     5.7569 C.ar         1    LIG   0.0000
  27 N27          3.3929     3.8492     5.2996 N.ar         1    LIG   0.0000
  28 S28          4.3028     1.7515     1.9903 S.3          1    LIG   0.0000
  29 C29          1.2007    -0.6882    -0.0158 C.ar         1    LIG   0.0000
  30 C30         -0.0141    -0.0115    -0.0012 C.ar         1    LIG   0.0000
  31 H            3.9163    -1.8699     1.5637 H            1    LIG   0.0000
  32 H           -3.1703     1.7916     0.0395 H            1    LIG   0.0000
  33 H           -2.3594     0.6452    -0.7939 H            1    LIG   0.0000
  34 H           -2.3451     0.6313     0.8390 H            1    LIG   0.0000
  35 H            1.1565     3.1027     0.0115 H            1    LIG   0.0000
  36 H            3.2445     1.9242    -0.0133 H            1    LIG   0.0000
  37 H            5.3255    -2.1691    -3.3219 H            1    LIG   0.0000
  38 H            7.4232    -3.3204    -3.4357 H            1    LIG   0.0000
  39 H            8.7773    -3.4834    -1.4623 H            1    LIG   0.0000
  40 H            8.0296    -2.5224     0.5835 H            1    LIG   0.0000
  41 H            6.3954    -0.9276     1.7487 H            1    LIG   0.0000
  42 H            3.4433    -0.9499     3.9115 H            1    LIG   0.0000
  43 H            4.4408     4.3845     2.2422 H            1    LIG   0.0000
  44 H            4.3730     6.6525     3.0257 H            1    LIG   0.0000
  45 H            3.6747     7.1133     5.2766 H            1    LIG   0.0000
  46 H            3.0546     5.2854     6.6965 H            1    LIG   0.0000
  47 H            1.2161    -1.6881    -0.0231 H            1    LIG   0.0000
  48 H           -0.8759    -0.5187     0.0022 H            1    LIG   0.0000
@<TRIPOS>BOND
   1        1        2 1
   2        2        3 1
   3        3        4 ar
   4        4        5 ar
   5        5        6 ar
   6        6        7 1
   7        7        8 am
   8        8        9 2
   9        8       10 1
  10       10       11 ar
  11       11       12 ar
  12       12       13 ar
  13       13       14 ar
  14       14       15 ar
  15       15       10 ar
  16       15       16 1
  17       16       17 1
  18       17        7 1
  19       17       18 1
  20       18       19 2
  21       19       20 1
  22       20       21 2
  23       21       22 1
  24       22       23 ar
  25       23       24 ar
  26       24       25 ar
  27       25       26 ar
  28       26       27 ar
  29       27       22 ar
  30       21       28 1
  31       28       18 1
  32        6       29 ar
  33       29       30 ar
  34       30        3 ar
  35       17       31 1
  36        1       32 1
  37        1       33 1
  38        1       34 1
  39        4       35 1
  40        5       36 1
  41       11       37 1
  42       12       38 1
  43       13       39 1
  44       14       40 1
  45       16       41 1
  46       19       42 1
  47       23       43 1
  48       24       44 1
  49       25       45 1
  50       26       46 1
  51       29       47 1
  52       30       48 1

@<TRIPOS>MOLECULE

  48   52
SMALL
USER_CHARGES
@<TRIPOS>ATOM
   1 C1          -1.1044     3.4542     0.0356 C.3          1    LIG   0.0000
   2 O2          -1.1948     2.0371     0.0243 O.3          1    LIG   0.0000
   3 C3          -0.0161     1.3796     0.0085 C.ar         1    LIG   0.0000
   4 C4           1.1722     2.1028     0.0043 C.ar         1    LIG   0.0000
   5 C5           2.3826     1.4171    -0.0101 C.ar         1    LIG   0.0000
   6 C6           2.3941     0.0259    -0.0202 C.ar         1    LIG   0.0000
   7 N7           3.6213    -0.6568    -0.0358 N.am         1    LIG   0.0000
   8 C8           4.2016    -0.9769    -1.2763 C.2          1    LIG   0.0000
   9 O9           3.6511    -0.6288    -2.3068 O.2          1    LIG   0.0000
  10 C10          5.4645    -1.6905    -1.3056 C.ar         1    LIG   0.0000
  11 C11          5.8958    -2.2483    -2.5043 C.ar         1    LIG   0.0000
  12 C12          7.1145    -2.9155    -2.5750 C.ar         1    LIG   0.0000
  13 C13          7.8971    -3.0102    -1.4279 C.ar         1    LIG   0.0000
  14 C14          7.4574    -2.4476    -0.2332 C.ar         1    LIG   0.0000
  15 C15          6.2376    -1.7835    -0.1524 C.ar         1    LIG   0.0000
  16 N16          5.7578    -1.2085     1.0315 N.pl3        1    LIG   0.0000
  17 C17          4.3106    -1.0205     1.2131 C.3          1    LIG   0.0000
  18 C18          4.0765     0.0854     2.2298 C.2          1    LIG   0.0000
  19 C19          2.9232     0.7715     2.4443 C.2          1    LIG   0.0000
  20 N20          2.9837     1.7288     3.4249 N.2          1    LIG   0.0000
  21 C21          4.1444     1.8457     4.0260 C.2          1    LIG   0.0000
  22 C22          4.5016     2.7637     5.0892 C.ar         1    LIG   0.0000
  23 C23          3.5281     3.6378     5.5608 C.ar         1    LIG   0.0000
  24 C24          3.8630     4.5213     6.5806 C.ar         1    LIG   0.0000
  25 C25          5.1501     4.5190     7.1075 C.ar         1    LIG   0.0000
  26 C26          6.0784     3.6206     6.5934 C.ar         1    LIG   0.0000
  27 N27          5.7381     2.7749     5.6093 N.ar         1    LIG   0.0000
  28 S28          5.2083     0.7105     3.3310 S.3          1    LIG   0.0000
  29 C29          1.2007    -0.6882    -0.0158 C.ar         1    LIG   0.0000
  30 C30         -0.0141    -0.0115    -0.0012 C.ar         1    LIG   0.0000
  31 H            3.9163    -1.8699     1.5637 H            1    LIG   0.0000
  32 H           -2.0240     3.8468     0.0470 H            1    LIG   0.0000
  33 H           -0.6056     3.7498     0.8504 H            1    LIG   0.0000
  34 H           -0.6198     3.7638    -0.7825 H            1    LIG   0.0000
  35 H            1.1565     3.1027     0.0115 H            1    LIG   0.0000
  36 H            3.2445     1.9242    -0.0133 H            1    LIG   0.0000
  37 H            5.3255    -2.1691    -3.3219 H            1    LIG   0.0000
  38 H            7.4232    -3.3204    -3.4357 H            1    LIG   0.0000
  39 H            8.7773    -3.4834    -1.4623 H            1    LIG   0.0000
  40 H            8.0296    -2.5224     0.5835 H            1    LIG   0.0000
  41 H            6.3954    -0.9276     1.7487 H            1    LIG   0.0000
  42 H            2.0887     0.5912     1.9236 H            1    LIG   0.0000
  43 H            2.6059     3.6308     5.1742 H            1    LIG   0.0000
  44 H            3.1786     5.1583     6.9353 H            1    LIG   0.0000
  45 H            5.4026     5.1504     7.8407 H            1    LIG   0.0000
  46 H            7.0084     3.6046     6.9608 H            1    LIG   0.0000
  47 H            1.2161    -1.6881    -0.0231 H            1    LIG   0.0000
  48 H           -0.8759    -0.5187     0.0022 H            1    LIG   0.0000
@<TRIPOS>BOND
   1        1        2 1
   2        2        3 1
   3        3        4 ar
   4        4        5 ar
   5        5        6 ar
   6        6        7 1
   7        7        8 am
   8        8        9 2
   9        8       10 1
  10       10       11 ar
  11       11       12 ar
  12       12       13 ar
  13       13       14 ar
  14       14       15 ar
  15       15       10 ar
  16       15       16 1
  17       16       17 1
  18       17        7 1
  19       17       18 1
  20       18       19 2
  21       19       20 1
  22       20       21 2
  23       21       22 1
  24       22       23 ar
  25       23       24 ar
  26       24       25 ar
  27       25       26 ar
  28       26       27 ar
  29       27       22 ar
  30       21       28 1
  31       28       18 1
  32        6       29 ar
  33       29       30 ar
  34       30        3 ar
  35       17       31 1
  36        1       32 1
  37        1       33 1
  38        1       34 1
  39        4       35 1
  40        5       36 1
  41       11       37 1
  42       12       38 1
  43       13       39 1
  44       14       40 1
  45       16       41 1
  46       19       42 1
  47       23       43 1
  48       24       44 1
  49       25       45 1
  50       26       46 1
  51       29       47 1
  52       30       48 1

@<TRIPOS>MOLECULE

  48   52
SMALL
USER_CHARGES
@<TRIPOS>ATOM
   1 C1          -2.3531     1.2155     0.0274 C.3          1    LIG   0.0000
   2 O2          -1.1948     2.0371     0.0243 O.3          1    LIG   0.0000
   3 C3          -0.0161     1.3796     0.0085 C.ar         1    LIG   0.0000
   4 C4           1.1722     2.1028     0.0043 C.ar         1    LIG   0.0000
   5 C5           2.3826     1.4171    -0.0101 C.ar         1    LIG   0.0000
   6 C6           2.3941     0.0259    -0.0202 C.ar         1    LIG   0.0000
   7 N7           3.6213    -0.6568    -0.0358 N.am         1    LIG   0.0000
   8 C8           4.2016    -0.9769    -1.2763 C.2          1    LIG   0.0000
   9 O9           3.6511    -0.6288    -2.3068 O.2          1    LIG   0.0000
  10 C10          5.4645    -1.6905    -1.3056 C.ar         1    LIG   0.0000
  11 C11          5.8958    -2.2483    -2.5043 C.ar         1    LIG   0.0000
  12 C12          7.1145    -2.9155    -2.5750 C.ar         1    LIG   0.0000
  13 C13          7.8971    -3.0102    -1.4279 C.ar         1    LIG   0.0000
  14 C14          7.4574    -2.4476    -0.2332 C.ar         1    LIG   0.0000
  15 C15          6.2376    -1.7835    -0.1524 C.ar         1    LIG   0.0000
  16 N16          5.7578    -1.2085     1.0315 N.pl3        1    LIG   0.0000
  17 C17          4.3106    -1.0205     1.2131 C.3          1    LIG   0.0000
  18 C18          4.0765     0.0854     2.2298 C.2          1    LIG   0.0000
  19 C19          5.0143     0.7218     2.9798 C.2          1    LIG   0.0000
  20 N20          4.5316     1.6842     3.8296 N.2          1    LIG   0.0000
  21 C21          3.2320     1.8634     3.7967 C.2          1    LIG   0.0000
  22 C22          2.4480     2.8005     4.5765 C.ar         1    LIG   0.0000
  23 C23          1.0702     2.8242     4.3888 C.ar         1    LIG   0.0000
  24 C24          0.3113     3.7201     5.1331 C.ar         1    LIG   0.0000
  25 C25          0.9325     4.5693     6.0426 C.ar         1    LIG   0.0000
  26 C26          2.3137     4.4970     6.1848 C.ar         1    LIG   0.0000
  27 N27          3.0306     3.6265     5.4584 N.ar         1    LIG   0.0000
  28 S28          2.5846     0.7768     2.6548 S.3          1    LIG   0.0000
  29 C29          1.2007    -0.6882    -0.0158 C.ar         1    LIG   0.0000
  30 C30         -0.0141    -0.0115    -0.0012 C.ar         1    LIG   0.0000
  31 H            3.9163    -1.8699     1.5637 H            1    LIG   0.0000
  32 H           -3.1703     1.7916     0.0395 H            1    LIG   0.0000
  33 H           -2.3594     0.6452    -0.7939 H            1    LIG   0.0000
  34 H           -2.3451     0.6313     0.8390 H            1    LIG   0.0000
  35 H            1.1565     3.1027     0.0115 H            1    LIG   0.0000
  36 H            3.2445     1.9242    -0.0133 H            1    LIG   0.0000
  37 H            5.3255    -2.1691    -3.3219 H            1    LIG   0.0000
  38 H            7.4232    -3.3204    -3.4357 H            1    LIG   0.0000
  39 H            8.7773    -3.4834    -1.4623 H            1    LIG   0.0000
  40 H            8.0296    -2.5224     0.5835 H            1    LIG   0.0000
  41 H            6.3954    -0.9276     1.7487 H            1    LIG   0.0000
  42 H            5.9881     0.5036     2.9166 H            1    LIG   0.0000
  43 H            0.6343     2.2092     3.7317 H            1    LIG   0.0000
  44 H           -0.6811     3.7540     5.0146 H            1    LIG   0.0000
  45 H            0.3970     5.2182     6.5830 H            1    LIG   0.0000
  46 H            2.7770     5.0997     6.8345 H            1    LIG   0.0000
  47 H            1.2161    -1.6881    -0.0231 H            1    LIG   0.0000
  48 H           -0.8759    -0.5187     0.0022 H            1    LIG   0.0000
@<TRIPOS>BOND
   1        1        2 1
   2        2        3 1
   3        3        4 ar
   4        4        5 ar
   5        5        6 ar
   6        6        7 1
   7        7        8 am
   8        8        9 2
   9        8       10 1
  10       10       11 ar
  11       11       12 ar
  12       12       13 ar
  13       13       14 ar
  14       14       15 ar
  15       15       10 ar
  16       15       16 1
  17       16       17 1
  18       17        7 1
  19       17       18 1
  20       18       19 2
  21       19       20 1
  22       20       21 2
  23       21       22 1
  24       22       23 ar
  25       23       24 ar
  26       24       25 ar
  27       25       26 ar
  28       26       27 ar
  29       27       22 ar
  30       21       28 1
  31       28       18 1
  32        6       29 ar
  33       29       30 ar
  34       30        3 ar
  35       17       31 1
  36        1       32 1
  37        1       33 1
  38        1       34 1
  39        4       35 1
  40        5       36 1
  41       11       37 1
  42       12       38 1
  43       13       39 1
  44       14       40 1
  45       16       41 1
  46       19       42 1
  47       23       43 1
  48       24       44 1
  49       25       45 1
  50       26       46 1
  51       29       47 1
  52       30       48 1

@<TRIPOS>MOLECULE

  48   52
SMALL
USER_CHARGES
@<TRIPOS>ATOM
   1 C1          -1.1044     3.4542     0.0356 C.3          1    LIG   0.0000
   2 O2          -1.1948     2.0371     0.0243 O.3          1    LIG   0.0000
   3 C3          -0.0161     1.3796     0.0085 C.ar         1    LIG   0.0000
   4 C4           1.1722     2.1028     0.0043 C.ar         1    LIG   0.0000
   5 C5           2.3826     1.4171    -0.0101 C.ar         1    LIG   0.0000
   6 C6           2.3941     0.0259    -0.0202 C.ar         1    LIG   0.0000
   7 N7           3.6213    -0.6568    -0.0358 N.am         1    LIG   0.0000
   8 C8           4.2232    -0.9945     1.1895 C.2          1    LIG   0.0000
   9 O9           3.6574    -0.7215     2.2343 O.2          1    LIG   0.0000
  10 C10          5.4957    -1.6914     1.1865 C.ar         1    LIG   0.0000
  11 C11          6.2203    -1.7768     2.3705 C.ar         1    LIG   0.0000
  12 C12          7.4309    -2.4611     2.4103 C.ar         1    LIG   0.0000
  13 C13          7.9014    -3.0636     1.2472 C.ar         1    LIG   0.0000
  14 C14          7.1685    -2.9737     0.0674 C.ar         1    LIG   0.0000
  15 C15          5.9598    -2.2868     0.0176 C.ar         1    LIG   0.0000
  16 N16          5.1953    -2.1695    -1.1504 N.pl3        1    LIG   0.0000
  17 C17          4.2692    -1.0372    -1.3018 C.3          1    LIG   0.0000
  18 C18          3.1866    -1.4104    -2.3018 C.2          1    LIG   0.0000
  19 C19          3.0559    -0.9572    -3.5763 C.2          1    LIG   0.0000
  20 N20          1.9793    -1.4520    -4.2674 N.2          1    LIG   0.0000
  21 C21          1.2276    -2.3002    -3.6058 C.2          1    LIG   0.0000
  22 C22          0.0347    -2.9772    -4.0741 C.ar         1    LIG   0.0000
  23 C23         -0.3964    -2.7311    -5.3732 C.ar         1    LIG   0.0000
  24 C24         -1.5397    -3.3769    -5.8299 C.ar         1    LIG   0.0000
  25 C25         -2.2275    -4.2480    -4.9919 C.ar         1    LIG   0.0000
  26 C26         -1.7457    -4.4524    -3.7038 C.ar         1    LIG   0.0000
  27 N27         -0.6408    -3.8210    -3.2796 N.ar         1    LIG   0.0000
  28 S28          1.8950    -2.4838    -2.0487 S.3          1    LIG   0.0000
  29 C29          1.2007    -0.6882    -0.0158 C.ar         1    LIG   0.0000
  30 C30         -0.0141    -0.0115    -0.0012 C.ar         1    LIG   0.0000
  31 H            4.7763    -0.2504    -1.6538 H            1    LIG   0.0000
  32 H           -2.0240     3.8468     0.0470 H            1    LIG   0.0000
  33 H           -0.6056     3.7498     0.8504 H            1    LIG   0.0000
  34 H           -0.6198     3.7638    -0.7825 H            1    LIG   0.0000
  35 H            1.1565     3.1027     0.0115 H            1    LIG   0.0000
  36 H            3.2445     1.9242    -0.0133 H            1    LIG   0.0000
  37 H            5.8683    -1.3428     3.1999 H            1    LIG   0.0000
  38 H            7.9543    -2.5191     3.2604 H            1    LIG   0.0000
  39 H            8.7682    -3.5623     1.2593 H            1    LIG   0.0000
  40 H            7.5177    -3.4116    -0.7610 H            1    LIG   0.0000
  41 H            5.2788    -2.8516    -1.8769 H            1    LIG   0.0000
  42 H            3.6996    -0.3083    -3.9820 H            1    LIG   0.0000
  43 H            0.1059    -2.1024    -5.9669 H            1    LIG   0.0000
  44 H           -1.8675    -3.2150    -6.7607 H            1    LIG   0.0000
  45 H           -3.0514    -4.7176    -5.3092 H            1    LIG   0.0000
  46 H           -2.2273    -5.0758    -3.0879 H            1    LIG   0.0000
  47 H            1.2161    -1.6881    -0.0231 H            1    LIG   0.0000
  48 H           -0.8759    -0.5187     0.0022 H            1    LIG   0.0000
@<TRIPOS>BOND
   1        1        2 1
   2        2        3 1
   3        3        4 ar
   4        4        5 ar
   5        5        6 ar
   6        6        7 1
   7        7        8 am
   8        8        9 2
   9        8       10 1
  10       10       11 ar
  11       11       12 ar
  12       12       13 ar
  13       13       14 ar
  14       14       15 ar
  15       15       10 ar
  16       15       16 1
  17       16       17 1
  18       17        7 1
  19       17       18 1
  20       18       19 2
  21       19       20 1
  22       20       21 2
  23       21       22 1
  24       22       23 ar
  25       23       24 ar
  26       24       25 ar
  27       25       26 ar
  28       26       27 ar
  29       27       22 ar
  30       21       28 1
  31       28       18 1
  32        6       29 ar
  33       29       30 ar
  34       30        3 ar
  35       17       31 1
  36        1       32 1
  37        1       33 1
  38        1       34 1
  39        4       35 1
  40        5       36 1
  41       11       37 1
  42       12       38 1
  43       13       39 1
  44       14       40 1
  45       16       41 1
  46       19       42 1
  47       23       43 1
  48       24       44 1
  49       25       45 1
  50       26       46 1
  51       29       47 1
  52       30       48 1

@<TRIPOS>MOLECULE

  48   52
SMALL
USER_CHARGES
@<TRIPOS>ATOM
   1 C1          -2.3531     1.2155     0.0274 C.3          1    LIG   0.0000
   2 O2          -1.1948     2.0371     0.0243 O.3          1    LIG   0.0000
   3 C3          -0.0161     1.3796     0.0085 C.ar         1    LIG   0.0000
   4 C4           1.1722     2.1028     0.0043 C.ar         1    LIG   0.0000
   5 C5           2.3826     1.4171    -0.0101 C.ar         1    LIG   0.0000
   6 C6           2.3941     0.0259    -0.0202 C.ar         1    LIG   0.0000
   7 N7           3.6213    -0.6568    -0.0358 N.am         1    LIG   0.0000
   8 C8           4.2232    -0.9945     1.1895 C.2          1    LIG   0.0000
   9 O9           3.6574    -0.7215     2.2343 O.2          1    LIG   0.0000
  10 C10          5.4957    -1.6914     1.1865 C.ar         1    LIG   0.0000
  11 C11          6.2203    -1.7768     2.3705 C.ar         1    LIG   0.0000
  12 C12          7.4309    -2.4611     2.4103 C.ar         1    LIG   0.0000
  13 C13          7.9014    -3.0636     1.2472 C.ar         1    LIG   0.0000
  14 C14          7.1685    -2.9737     0.0674 C.ar         1    LIG   0.0000
  15 C15          5.9598    -2.2868     0.0176 C.ar         1    LIG   0.0000
  16 N16          5.1953    -2.1695    -1.1504 N.pl3        1    LIG   0.0000
  17 C17          4.2692    -1.0372    -1.3018 C.3          1    LIG   0.0000
  18 C18          3.1866    -1.4104    -2.3018 C.2          1    LIG   0.0000
  19 C19          1.9916    -0.7901    -2.4863 C.2          1    LIG   0.0000
  20 N20          1.1911    -1.3357    -3.4575 N.2          1    LIG   0.0000
  21 C21          1.6919    -2.3770    -4.0798 C.2          1    LIG   0.0000
  22 C22          1.0795    -3.1530    -5.1397 C.ar         1    LIG   0.0000
  23 C23          1.7870    -4.2307    -5.6613 C.ar         1    LIG   0.0000
  24 C24          1.2063    -4.9802    -6.6781 C.ar         1    LIG   0.0000
  25 C25         -0.0571    -4.6456    -7.1534 C.ar         1    LIG   0.0000
  26 C26         -0.7137    -3.5570    -6.5904 C.ar         1    LIG   0.0000
  27 N27         -0.1385    -2.8449    -5.6099 N.ar         1    LIG   0.0000
  28 S28          3.2306    -2.6898    -3.4179 S.3          1    LIG   0.0000
  29 C29          1.2007    -0.6882    -0.0158 C.ar         1    LIG   0.0000
  30 C30         -0.0141    -0.0115    -0.0012 C.ar         1    LIG   0.0000
  31 H            4.7763    -0.2504    -1.6538 H            1    LIG   0.0000
  32 H           -3.1703     1.7916     0.0395 H            1    LIG   0.0000
  33 H           -2.3594     0.6452    -0.7939 H            1    LIG   0.0000
  34 H           -2.3451     0.6313     0.8390 H            1    LIG   0.0000
  35 H            1.1565     3.1027     0.0115 H            1    LIG   0.0000
  36 H            3.2445     1.9242    -0.0133 H            1    LIG   0.0000
  37 H            5.8683    -1.3428     3.1999 H            1    LIG   0.0000
  38 H            7.9543    -2.5191     3.2604 H            1    LIG   0.0000
  39 H            8.7682    -3.5623     1.2593 H            1    LIG   0.0000
  40 H            7.5177    -3.4116    -0.7610 H            1    LIG   0.0000
  41 H            5.2788    -2.8516    -1.8769 H            1    LIG   0.0000
  42 H            1.7151     0.0084    -1.9515 H            1    LIG   0.0000
  43 H            2.6951    -4.4619    -5.3121 H            1    LIG   0.0000
  44 H            1.6970    -5.7596    -7.0677 H            1    LIG   0.0000
  45 H           -0.4845    -5.1770    -7.8849 H            1    LIG   0.0000
  46 H           -1.6230    -3.3025    -6.9195 H            1    LIG   0.0000
  47 H            1.2161    -1.6881    -0.0231 H            1    LIG   0.0000
  48 H           -0.8759    -0.5187     0.0022 H            1    LIG   0.0000
@<TRIPOS>BOND
   1        1        2 1
   2        2        3 1
   3        3        4 ar
   4        4        5 ar
   5        5        6 ar
   6        6        7 1
   7        7        8 am
   8        8        9 2
   9        8       10 1
  10       10       11 ar
  11       11       12 ar
  12       12       13 ar
  13       13       14 ar
  14       14       15 ar
  15       15       10 ar
  16       15       16 1
  17       16       17 1
  18       17        7 1
  19       17       18 1
  20       18       19 2
  21       19       20 1
  22       20       21 2
  23       21       22 1
  24       22       23 ar
  25       23       24 ar
  26       24       25 ar
  27       25       26 ar
  28       26       27 ar
  29       27       22 ar
  30       21       28 1
  31       28       18 1
  32        6       29 ar
  33       29       30 ar
  34       30        3 ar
  35       17       31 1
  36        1       32 1
  37        1       33 1
  38        1       34 1
  39        4       35 1
  40        5       36 1
  41       11       37 1
  42       12       38 1
  43       13       39 1
  44       14       40 1
  45       16       41 1
  46       19       42 1
  47       23       43 1
  48       24       44 1
  49       25       45 1
  50       26       46 1
  51       29       47 1
  52       30       48 1

@<TRIPOS>MOLECULE

  48   52
SMALL
USER_CHARGES
@<TRIPOS>ATOM
   1 C1          -2.3531     1.2155     0.0274 C.3          1    LIG   0.0000
   2 O2          -1.1948     2.0371     0.0243 O.3          1    LIG   0.0000
   3 C3          -0.0161     1.3796     0.0085 C.ar         1    LIG   0.0000
   4 C4           1.1722     2.1028     0.0043 C.ar         1    LIG   0.0000
   5 C5           2.3826     1.4171    -0.0101 C.ar         1    LIG   0.0000
   6 C6           2.3941     0.0259    -0.0202 C.ar         1    LIG   0.0000
   7 N7           3.6213    -0.6568    -0.0358 N.am         1    LIG   0.0000
   8 C8           4.2232    -0.9945     1.1895 C.2          1    LIG   0.0000
   9 O9           3.6574    -0.7215     2.2343 O.2          1    LIG   0.0000
  10 C10          5.4957    -1.6914     1.1865 C.ar         1    LIG   0.0000
  11 C11          6.2203    -1.7768     2.3705 C.ar         1    LIG   0.0000
  12 C12          7.4309    -2.4611     2.4103 C.ar         1    LIG   0.0000
  13 C13          7.9014    -3.0636     1.2472 C.ar         1    LIG   0.0000
  14 C14          7.1685    -2.9737     0.0674 C.ar         1    LIG   0.0000
  15 C15          5.9598    -2.2868     0.0176 C.ar         1    LIG   0.0000
  16 N16          5.1953    -2.1695    -1.1504 N.pl3        1    LIG   0.0000
  17 C17          4.2692    -1.0372    -1.3018 C.3          1    LIG   0.0000
  18 C18          3.1866    -1.4104    -2.3018 C.2          1    LIG   0.0000
  19 C19          3.1256    -2.5346    -3.0629 C.2          1    LIG   0.0000
  20 N20          2.0369    -2.6229    -3.8927 N.2          1    LIG   0.0000
  21 C21          1.2004    -1.6136    -3.8326 C.2          1    LIG   0.0000
  22 C22         -0.0241    -1.4332    -4.5867 C.ar         1    LIG   0.0000
  23 C23         -0.3960    -2.4251    -5.4879 C.ar         1    LIG   0.0000
  24 C24         -1.5694    -2.2594    -6.2149 C.ar         1    LIG   0.0000
  25 C25         -2.3443    -1.1189    -6.0335 C.ar         1    LIG   0.0000
  26 C26         -1.9188    -0.1636    -5.1173 C.ar         1    LIG   0.0000
  27 N27         -0.7839    -0.3397    -4.4242 N.ar         1    LIG   0.0000
  28 S28          1.8045    -0.5030    -2.6901 S.3          1    LIG   0.0000
  29 C29          1.2007    -0.6882    -0.0158 C.ar         1    LIG   0.0000
  30 C30         -0.0141    -0.0115    -0.0012 C.ar         1    LIG   0.0000
  31 H            4.7763    -0.2504    -1.6538 H            1    LIG   0.0000
  32 H           -3.1703     1.7916     0.0395 H            1    LIG   0.0000
  33 H           -2.3594     0.6452    -0.7939 H            1    LIG   0.0000
  34 H           -2.3451     0.6313     0.8390 H            1    LIG   0.0000
  35 H            1.1565     3.1027     0.0115 H            1    LIG   0.0000
  36 H            3.2445     1.9242    -0.0133 H            1    LIG   0.0000
  37 H            5.8683    -1.3428     3.1999 H            1    LIG   0.0000
  38 H            7.9543    -2.5191     3.2604 H            1    LIG   0.0000
  39 H            8.7682    -3.5623     1.2593 H            1    LIG   0.0000
  40 H            7.5177    -3.4116    -0.7610 H            1    LIG   0.0000
  41 H            5.2788    -2.8516    -1.8769 H            1    LIG   0.0000
  42 H            3.8254    -3.2476    -3.0210 H            1    LIG   0.0000
  43 H            0.1692    -3.2409    -5.6104 H            1    LIG   0.0000
  44 H           -1.8561    -2.9602    -6.8681 H            1    LIG   0.0000
  45 H           -3.1898    -0.9886    -6.5513 H            1    LIG   0.0000
  46 H           -2.4639     0.6624    -4.9736 H            1    LIG   0.0000
  47 H            1.2161    -1.6881    -0.0231 H            1    LIG   0.0000
  48 H           -0.8759    -0.5187     0.0022 H            1    LIG   0.0000
@<TRIPOS>BOND
   1        1        2 1
   2        2        3 1
   3        3        4 ar
   4        4        5 ar
   5        5        6 ar
   6        6        7 1
   7        7        8 am
   8        8        9 2
   9        8       10 1
  10       10       11 ar
  11       11       12 ar
  12       12       13 ar
  13       13       14 ar
  14       14       15 ar
  15       15       10 ar
  16       15       16 1
  17       16       17 1
  18       17        7 1
  19       17       18 1
  20       18       19 2
  21       19       20 1
  22       20       21 2
  23       21       22 1
  24       22       23 ar
  25       23       24 ar
  26       24       25 ar
  27       25       26 ar
  28       26       27 ar
  29       27       22 ar
  30       21       28 1
  31       28       18 1
  32        6       29 ar
  33       29       30 ar
  34       30        3 ar
  35       17       31 1
  36        1       32 1
  37        1       33 1
  38        1       34 1
  39        4       35 1
  40        5       36 1
  41       11       37 1
  42       12       38 1
  43       13       39 1
  44       14       40 1
  45       16       41 1
  46       19       42 1
  47       23       43 1
  48       24       44 1
  49       25       45 1
  50       26       46 1
  51       29       47 1
  52       30       48 1

