@<TRIPOS>MOLECULE
*****
 48 52 0 0 0
SMALL
USER_CHARGES

@<TRIPOS>ATOM
      1 C1         -1.1044    3.4542    0.0356 C.3     1  LIG1        0.0000
      2 O2         -1.1948    2.0371    0.0243 O.2     1  LIG1        0.0000
      3 C3         -0.0161    1.3796    0.0085 C.3     1  LIG1        0.0000
      4 C4          1.1722    2.1028    0.0043 C.3     1  LIG1        0.0000
      5 C5          2.3826    1.4171   -0.0101 C.3     1  LIG1        0.0000
      6 C6          2.3941    0.0259   -0.0202 C.3     1  LIG1        0.0000
      7 N7          3.6213   -0.6568   -0.0358 N.am    1  LIG1        0.0000
      8 C8          4.2232   -0.9945    1.1895 C.2     1  LIG1        0.0000
      9 O9          3.6574   -0.7215    2.2343 O.2     1  LIG1        0.0000
     10 C10         5.4957   -1.6914    1.1865 C.3     1  LIG1        0.0000
     11 C11         6.2203   -1.7768    2.3705 C.3     1  LIG1        0.0000
     12 C12         7.4309   -2.4611    2.4103 C.3     1  LIG1        0.0000
     13 C13         7.9014   -3.0636    1.2472 C.3     1  LIG1        0.0000
     14 C14         7.1685   -2.9737    0.0674 C.3     1  LIG1        0.0000
     15 C15         5.9598   -2.2868    0.0176 C.3     1  LIG1        0.0000
     16 N16         5.1953   -2.1695   -1.1504 N.pl3   1  LIG1        0.0000
     17 C17         4.2692   -1.0372   -1.3018 C.3     1  LIG1        0.0000
     18 C18         3.1866   -1.4104   -2.3018 C.2     1  LIG1        0.0000
     19 C19         3.0559   -0.9572   -3.5763 C.2     1  LIG1        0.0000
     20 N20         1.9793   -1.4520   -4.2674 N.2     1  LIG1        0.0000
     21 C21         1.2276   -2.3002   -3.6058 C.2     1  LIG1        0.0000
     22 C22         0.0347   -2.9772   -4.0741 C.3     1  LIG1        0.0000
     23 C23        -0.3964   -2.7311   -5.3732 C.3     1  LIG1        0.0000
     24 C24        -1.5397   -3.3769   -5.8299 C.3     1  LIG1        0.0000
     25 C25        -2.2275   -4.2480   -4.9919 C.3     1  LIG1        0.0000
     26 C26        -1.7457   -4.4524   -3.7038 C.3     1  LIG1        0.0000
     27 N27        -0.6408   -3.8210   -3.2796 N.pl3   1  LIG1        0.0000
     28 S28         1.8950   -2.4838   -2.0487 S.3     1  LIG1        0.0000
     29 C29         1.2007   -0.6882   -0.0158 C.3     1  LIG1        0.0000
     30 C30        -0.0141   -0.0115   -0.0012 C.3     1  LIG1        0.0000
     31 H           4.7763   -0.2504   -1.6538 H       1  LIG1        0.0000
     32 H          -2.0240    3.8468    0.0470 H       1  LIG1        0.0000
     33 H          -0.6056    3.7498    0.8504 H       1  LIG1        0.0000
     34 H          -0.6198    3.7638   -0.7825 H       1  LIG1        0.0000
     35 H           1.1565    3.1027    0.0115 H       1  LIG1        0.0000
     36 H           3.2445    1.9242   -0.0133 H       1  LIG1        0.0000
     37 H           5.8683   -1.3428    3.1999 H       1  LIG1        0.0000
     38 H           7.9543   -2.5191    3.2604 H       1  LIG1        0.0000
     39 H           8.7682   -3.5623    1.2593 H       1  LIG1        0.0000
     40 H           7.5177   -3.4116   -0.7610 H       1  LIG1        0.0000
     41 H           5.2788   -2.8516   -1.8769 H       1  LIG1        0.0000
     42 H           3.6996   -0.3083   -3.9820 H       1  LIG1        0.0000
     43 H           0.1059   -2.1024   -5.9669 H       1  LIG1        0.0000
     44 H          -1.8675   -3.2150   -6.7607 H       1  LIG1        0.0000
     45 H          -3.0514   -4.7176   -5.3092 H       1  LIG1        0.0000
     46 H          -2.2273   -5.0758   -3.0879 H       1  LIG1        0.0000
     47 H           1.2161   -1.6881   -0.0231 H       1  LIG1        0.0000
     48 H          -0.8759   -0.5187    0.0022 H       1  LIG1        0.0000
@<TRIPOS>BOND
     1     1     2    1
     2     2     3    1
     3     3     4   ar
     4     4     5   ar
     5     5     6   ar
     6     6     7    1
     7     7     8   am
     8     8     9    2
     9     8    10    1
    10    10    11   ar
    11    11    12   ar
    12    12    13   ar
    13    13    14   ar
    14    14    15   ar
    15    15    10   ar
    16    15    16    1
    17    16    17    1
    18    17     7    1
    19    17    18    1
    20    18    19    2
    21    19    20    1
    22    20    21    2
    23    21    22    1
    24    22    23   ar
    25    23    24   ar
    26    24    25   ar
    27    25    26   ar
    28    26    27   ar
    29    27    22   ar
    30    21    28    1
    31    28    18    1
    32     6    29   ar
    33    29    30   ar
    34    30     3   ar
    35    17    31    1
    36     1    32    1
    37     1    33    1
    38     1    34    1
    39     4    35    1
    40     5    36    1
    41    11    37    1
    42    12    38    1
    43    13    39    1
    44    14    40    1
    45    16    41    1
    46    19    42    1
    47    23    43    1
    48    24    44    1
    49    25    45    1
    50    26    46    1
    51    29    47    1
    52    30    48    1
