@<TRIPOS>MOLECULE
*****
 48 52 0 0 0
SMALL
USER_CHARGES

@<TRIPOS>ATOM
      1 C1         -2.3531    1.2155    0.0274 C.3     1  LIG1        0.0000
      2 O2         -1.1948    2.0371    0.0243 O.2     1  LIG1        0.0000
      3 C3         -0.0161    1.3796    0.0085 C.3     1  LIG1        0.0000
      4 C4          1.1722    2.1028    0.0043 C.3     1  LIG1        0.0000
      5 C5          2.3826    1.4171   -0.0101 C.3     1  LIG1        0.0000
      6 C6          2.3941    0.0259   -0.0202 C.3     1  LIG1        0.0000
      7 N7          3.6201   -0.6561   -0.0358 N.am    1  LIG1        0.0000
      8 C8          4.2275   -0.9913   -1.2576 C.2     1  LIG1        0.0000
      9 O9          3.6749   -0.6965   -2.3028 O.2     1  LIG1        0.0000
     10 C10         5.4967   -1.6943   -1.2270 C.3     1  LIG1        0.0000
     11 C11         6.3221   -1.7550   -2.3461 C.3     1  LIG1        0.0000
     12 C12         7.5254   -2.4498   -2.3044 C.3     1  LIG1        0.0000
     13 C13         7.9148   -3.0985   -1.1371 C.3     1  LIG1        0.0000
     14 C14         7.0926   -3.0465   -0.0153 C.3     1  LIG1        0.0000
     15 C15         5.9004   -2.3430   -0.0654 C.3     1  LIG1        0.0000
     16 N16         5.0962   -2.2696    1.0783 N.pl3   1  LIG1        0.0000
     17 C17         4.2757   -1.0573    1.2205 C.3     1  LIG1        0.0000
     18 C18         5.2038    0.0553    1.6810 C.2     1  LIG1        0.0000
     19 C19         5.2637    0.6136    2.9186 C.2     1  LIG1        0.0000
     20 N20         6.1936    1.6109    3.0679 N.2     1  LIG1        0.0000
     21 C21         6.9024    1.8840    1.9978 C.2     1  LIG1        0.0000
     22 C22         7.9465    2.8796    1.8584 C.3     1  LIG1        0.0000
     23 C23         8.5731    3.0099    0.6237 C.3     1  LIG1        0.0000
     24 C24         9.5755    3.9627    0.4820 C.3     1  LIG1        0.0000
     25 C25         9.9331    4.7613    1.5630 C.3     1  LIG1        0.0000
     26 C26         9.2688    4.5828    2.7713 C.3     1  LIG1        0.0000
     27 N27         8.3039    3.6586    2.8903 N.pl3   1  LIG1        0.0000
     28 S28         6.3796    0.8501    0.7482 S.3     1  LIG1        0.0000
     29 C29         1.2007   -0.6882   -0.0158 C.3     1  LIG1        0.0000
     30 C30        -0.0141   -0.0115   -0.0012 C.3     1  LIG1        0.0000
     31 H           3.5779   -1.2133    1.9196 H       1  LIG1        0.0000
     32 H          -3.1703    1.7916    0.0395 H       1  LIG1        0.0000
     33 H          -2.3594    0.6452   -0.7939 H       1  LIG1        0.0000
     34 H          -2.3451    0.6313    0.8390 H       1  LIG1        0.0000
     35 H           1.1565    3.1027    0.0115 H       1  LIG1        0.0000
     36 H           3.2445    1.9242   -0.0133 H       1  LIG1        0.0000
     37 H           6.0465   -1.2936   -3.1894 H       1  LIG1        0.0000
     38 H           8.1114   -2.4834   -3.1140 H       1  LIG1        0.0000
     39 H           8.7799   -3.5990   -1.1041 H       1  LIG1        0.0000
     40 H           7.3621   -3.5161    0.8255 H       1  LIG1        0.0000
     41 H           5.0806   -3.0007    1.7605 H       1  LIG1        0.0000
     42 H           4.6713    0.3180    3.6681 H       1  LIG1        0.0000
     43 H           8.3080    2.4299   -0.1466 H       1  LIG1        0.0000
     44 H          10.0392    4.0739   -0.3970 H       1  LIG1        0.0000
     45 H          10.6531    5.4495    1.4731 H       1  LIG1        0.0000
     46 H           9.5126    5.1487    3.5590 H       1  LIG1        0.0000
     47 H           1.2161   -1.6881   -0.0231 H       1  LIG1        0.0000
     48 H          -0.8759   -0.5187    0.0022 H       1  LIG1        0.0000
@<TRIPOS>BOND
     1     1     2    1
     2     2     3    1
     3     3     4   ar
     4     4     5   ar
     5     5     6   ar
     6     6     7    1
     7     7     8   am
     8     8     9    2
     9     8    10    1
    10    10    11   ar
    11    11    12   ar
    12    12    13   ar
    13    13    14   ar
    14    14    15   ar
    15    15    10   ar
    16    15    16    1
    17    16    17    1
    18    17     7    1
    19    17    18    1
    20    18    19    2
    21    19    20    1
    22    20    21    2
    23    21    22    1
    24    22    23   ar
    25    23    24   ar
    26    24    25   ar
    27    25    26   ar
    28    26    27   ar
    29    27    22   ar
    30    21    28    1
    31    28    18    1
    32     6    29   ar
    33    29    30   ar
    34    30     3   ar
    35    17    31    1
    36     1    32    1
    37     1    33    1
    38     1    34    1
    39     4    35    1
    40     5    36    1
    41    11    37    1
    42    12    38    1
    43    13    39    1
    44    14    40    1
    45    16    41    1
    46    19    42    1
    47    23    43    1
    48    24    44    1
    49    25    45    1
    50    26    46    1
    51    29    47    1
    52    30    48    1
