@<TRIPOS>MOLECULE
*****
 48 52 0 0 0
SMALL
USER_CHARGES

@<TRIPOS>ATOM
      1 C1         -1.1044    3.4542    0.0356 C.3     1  LIG1        0.0000
      2 O2         -1.1948    2.0371    0.0243 O.2     1  LIG1        0.0000
      3 C3         -0.0161    1.3796    0.0085 C.3     1  LIG1        0.0000
      4 C4          1.1722    2.1028    0.0043 C.3     1  LIG1        0.0000
      5 C5          2.3826    1.4171   -0.0101 C.3     1  LIG1        0.0000
      6 C6          2.3941    0.0259   -0.0202 C.3     1  LIG1        0.0000
      7 N7          3.6213   -0.6568   -0.0358 N.am    1  LIG1        0.0000
      8 C8          4.2016   -0.9769   -1.2763 C.2     1  LIG1        0.0000
      9 O9          3.6511   -0.6288   -2.3068 O.2     1  LIG1        0.0000
     10 C10         5.4645   -1.6905   -1.3056 C.3     1  LIG1        0.0000
     11 C11         5.8958   -2.2483   -2.5043 C.3     1  LIG1        0.0000
     12 C12         7.1145   -2.9155   -2.5750 C.3     1  LIG1        0.0000
     13 C13         7.8971   -3.0102   -1.4279 C.3     1  LIG1        0.0000
     14 C14         7.4574   -2.4476   -0.2332 C.3     1  LIG1        0.0000
     15 C15         6.2376   -1.7835   -0.1524 C.3     1  LIG1        0.0000
     16 N16         5.7578   -1.2085    1.0315 N.pl3   1  LIG1        0.0000
     17 C17         4.3106   -1.0205    1.2131 C.3     1  LIG1        0.0000
     18 C18         4.0765    0.0854    2.2298 C.2     1  LIG1        0.0000
     19 C19         2.9232    0.7715    2.4443 C.2     1  LIG1        0.0000
     20 N20         2.9837    1.7288    3.4249 N.2     1  LIG1        0.0000
     21 C21         4.1444    1.8457    4.0260 C.2     1  LIG1        0.0000
     22 C22         4.5016    2.7637    5.0892 C.3     1  LIG1        0.0000
     23 C23         3.5281    3.6378    5.5608 C.3     1  LIG1        0.0000
     24 C24         3.8630    4.5213    6.5806 C.3     1  LIG1        0.0000
     25 C25         5.1501    4.5190    7.1075 C.3     1  LIG1        0.0000
     26 C26         6.0784    3.6206    6.5934 C.3     1  LIG1        0.0000
     27 N27         5.7381    2.7749    5.6093 N.pl3   1  LIG1        0.0000
     28 S28         5.2083    0.7105    3.3310 S.3     1  LIG1        0.0000
     29 C29         1.2007   -0.6882   -0.0158 C.3     1  LIG1        0.0000
     30 C30        -0.0141   -0.0115   -0.0012 C.3     1  LIG1        0.0000
     31 H           3.9163   -1.8699    1.5637 H       1  LIG1        0.0000
     32 H          -2.0240    3.8468    0.0470 H       1  LIG1        0.0000
     33 H          -0.6056    3.7498    0.8504 H       1  LIG1        0.0000
     34 H          -0.6198    3.7638   -0.7825 H       1  LIG1        0.0000
     35 H           1.1565    3.1027    0.0115 H       1  LIG1        0.0000
     36 H           3.2445    1.9242   -0.0133 H       1  LIG1        0.0000
     37 H           5.3255   -2.1691   -3.3219 H       1  LIG1        0.0000
     38 H           7.4232   -3.3204   -3.4357 H       1  LIG1        0.0000
     39 H           8.7773   -3.4834   -1.4623 H       1  LIG1        0.0000
     40 H           8.0296   -2.5224    0.5835 H       1  LIG1        0.0000
     41 H           6.3954   -0.9276    1.7487 H       1  LIG1        0.0000
     42 H           2.0887    0.5912    1.9236 H       1  LIG1        0.0000
     43 H           2.6059    3.6308    5.1742 H       1  LIG1        0.0000
     44 H           3.1786    5.1583    6.9353 H       1  LIG1        0.0000
     45 H           5.4026    5.1504    7.8407 H       1  LIG1        0.0000
     46 H           7.0084    3.6046    6.9608 H       1  LIG1        0.0000
     47 H           1.2161   -1.6881   -0.0231 H       1  LIG1        0.0000
     48 H          -0.8759   -0.5187    0.0022 H       1  LIG1        0.0000
@<TRIPOS>BOND
     1     1     2    1
     2     2     3    1
     3     3     4   ar
     4     4     5   ar
     5     5     6   ar
     6     6     7    1
     7     7     8   am
     8     8     9    2
     9     8    10    1
    10    10    11   ar
    11    11    12   ar
    12    12    13   ar
    13    13    14   ar
    14    14    15   ar
    15    15    10   ar
    16    15    16    1
    17    16    17    1
    18    17     7    1
    19    17    18    1
    20    18    19    2
    21    19    20    1
    22    20    21    2
    23    21    22    1
    24    22    23   ar
    25    23    24   ar
    26    24    25   ar
    27    25    26   ar
    28    26    27   ar
    29    27    22   ar
    30    21    28    1
    31    28    18    1
    32     6    29   ar
    33    29    30   ar
    34    30     3   ar
    35    17    31    1
    36     1    32    1
    37     1    33    1
    38     1    34    1
    39     4    35    1
    40     5    36    1
    41    11    37    1
    42    12    38    1
    43    13    39    1
    44    14    40    1
    45    16    41    1
    46    19    42    1
    47    23    43    1
    48    24    44    1
    49    25    45    1
    50    26    46    1
    51    29    47    1
    52    30    48    1
