@<TRIPOS>MOLECULE
*****
 33 33 0 0 0
SMALL
USER_CHARGES

@<TRIPOS>ATOM
      1 C1          0.8342    0.9122   -2.8206 C.3     1  LIG1        0.0000
      2 C2          0.8197    0.3803   -1.3968 C.3     1  LIG1        0.0000
      3 C3          1.0145    1.5318   -0.4239 C.3     1  LIG1        0.0000
      4 C4          1.0000    1.0000    1.0000 C.3     1  LIG1        0.0000
      5 C5          1.8777    1.8777    1.8777 C.3     1  LIG1        0.0000
      6 C6          1.2963    2.9677    2.5158 C.3     1  LIG1        0.0000
      7 C7          2.0692    3.7932    3.3269 C.3     1  LIG1        0.0000
      8 C8          3.4225    3.5155    3.4909 C.3     1  LIG1        0.0000
      9 S9          4.3933    4.5442    4.5046 S.O2    1  LIG1        0.0000
     10 C10         4.3639    3.9190    6.2030 C.3     1  LIG1        0.0000
     11 O11         5.7493    4.5540    4.0202 O.2     1  LIG1        0.0000
     12 O12         3.8639    5.8831    4.4768 O.2     1  LIG1        0.0000
     13 C13         4.0108    2.4260    2.8565 C.3     1  LIG1        0.0000
     14 C14         3.2321    1.6053    2.0468 C.3     1  LIG1        0.0000
     15 C15         3.8941    0.4203    1.3625 C.3     1  LIG1        0.0000
     16 F16         3.1492   -0.6671    1.5401 F       1  LIG1        0.0000
     17 F17         4.0124    0.6690    0.0613 F       1  LIG1        0.0000
     18 F18         5.1000    0.2223    1.8874 F       1  LIG1        0.0000
     19 H           0.7060    0.1546   -3.4607 H       1  LIG1        0.0000
     20 H           0.0945    1.5751   -2.9364 H       1  LIG1        0.0000
     21 H           1.7115    1.3566   -3.0016 H       1  LIG1        0.0000
     22 H          -0.0577   -0.0641   -1.2159 H       1  LIG1        0.0000
     23 H           1.5593   -0.2826   -1.2810 H       1  LIG1        0.0000
     24 H           1.8918    1.9763   -0.6048 H       1  LIG1        0.0000
     25 H           0.2748    2.1948   -0.5396 H       1  LIG1        0.0000
     26 H           0.0633    1.0095    1.3499 H       1  LIG1        0.0000
     27 H           1.3499    0.0633    1.0095 H       1  LIG1        0.0000
     28 H           0.3226    3.1585    2.3919 H       1  LIG1        0.0000
     29 H           1.6557    4.5786    3.7875 H       1  LIG1        0.0000
     30 H           3.4222    3.9122    6.5394 H       1  LIG1        0.0000
     31 H           4.7315    2.9892    6.2223 H       1  LIG1        0.0000
     32 H           4.9217    4.5101    6.7855 H       1  LIG1        0.0000
     33 H           4.9843    2.2346    2.9813 H       1  LIG1        0.0000
@<TRIPOS>BOND
     1     1     2    1
     2     2     3    1
     3     3     4    1
     4     4     5    1
     5     5     6   ar
     6     6     7   ar
     7     7     8   ar
     8     8     9    1
     9     9    10    1
    10     9    11    2
    11     9    12    2
    12     8    13   ar
    13    13    14   ar
    14    14     5   ar
    15    14    15    1
    16    15    16    1
    17    15    17    1
    18    15    18    1
    19     1    19    1
    20     1    20    1
    21     1    21    1
    22     2    22    1
    23     2    23    1
    24     3    24    1
    25     3    25    1
    26     4    26    1
    27     4    27    1
    28     6    28    1
    29     7    29    1
    30    10    30    1
    31    10    31    1
    32    10    32    1
    33    13    33    1
