@<TRIPOS>MOLECULE
*****
 33 33 0 0 0
SMALL
USER_CHARGES

@<TRIPOS>ATOM
      1 C1         -0.2950    1.7426   -2.5220 C.3     1  LIG1        0.0000
      2 C2         -0.3094    1.2108   -1.0981 C.3     1  LIG1        0.0000
      3 C3          1.0145    1.5318   -0.4239 C.3     1  LIG1        0.0000
      4 C4          1.0000    1.0000    1.0000 C.3     1  LIG1        0.0000
      5 C5          1.8777    1.8777    1.8777 C.3     1  LIG1        0.0000
      6 C6          1.2963    2.9677    2.5158 C.3     1  LIG1        0.0000
      7 C7          2.0692    3.7932    3.3269 C.3     1  LIG1        0.0000
      8 C8          3.4225    3.5155    3.4909 C.3     1  LIG1        0.0000
      9 S9          4.3933    4.5442    4.5046 S.O2    1  LIG1        0.0000
     10 C10         5.0958    5.8828    3.5093 C.3     1  LIG1        0.0000
     11 O11         3.5728    5.1019    5.5484 O.2     1  LIG1        0.0000
     12 O12         5.4581    3.7728    5.0917 O.2     1  LIG1        0.0000
     13 C13         4.0108    2.4260    2.8565 C.3     1  LIG1        0.0000
     14 C14         3.2321    1.6053    2.0468 C.3     1  LIG1        0.0000
     15 C15         3.8941    0.4203    1.3625 C.3     1  LIG1        0.0000
     16 F16         3.1492   -0.6671    1.5401 F       1  LIG1        0.0000
     17 F17         4.0124    0.6690    0.0613 F       1  LIG1        0.0000
     18 F18         5.1000    0.2223    1.8874 F       1  LIG1        0.0000
     19 H          -1.1659    1.5314   -2.9655 H       1  LIG1        0.0000
     20 H          -0.1604    2.7334   -2.5064 H       1  LIG1        0.0000
     21 H           0.4511    1.3129   -3.0307 H       1  LIG1        0.0000
     22 H          -1.0554    1.6405   -0.5894 H       1  LIG1        0.0000
     23 H          -0.4439    0.2200   -1.1137 H       1  LIG1        0.0000
     24 H           1.7605    1.1021   -0.9326 H       1  LIG1        0.0000
     25 H           1.1490    2.5226   -0.4083 H       1  LIG1        0.0000
     26 H           0.0633    1.0095    1.3499 H       1  LIG1        0.0000
     27 H           1.3499    0.0633    1.0095 H       1  LIG1        0.0000
     28 H           0.3226    3.1585    2.3919 H       1  LIG1        0.0000
     29 H           1.6557    4.5786    3.7875 H       1  LIG1        0.0000
     30 H           5.6656    5.4955    2.7844 H       1  LIG1        0.0000
     31 H           4.3563    6.4185    3.1016 H       1  LIG1        0.0000
     32 H           5.6536    6.4739    4.0918 H       1  LIG1        0.0000
     33 H           4.9843    2.2346    2.9813 H       1  LIG1        0.0000
@<TRIPOS>BOND
     1     1     2    1
     2     2     3    1
     3     3     4    1
     4     4     5    1
     5     5     6   ar
     6     6     7   ar
     7     7     8   ar
     8     8     9    1
     9     9    10    1
    10     9    11    2
    11     9    12    2
    12     8    13   ar
    13    13    14   ar
    14    14     5   ar
    15    14    15    1
    16    15    16    1
    17    15    17    1
    18    15    18    1
    19     1    19    1
    20     1    20    1
    21     1    21    1
    22     2    22    1
    23     2    23    1
    24     3    24    1
    25     3    25    1
    26     4    26    1
    27     4    27    1
    28     6    28    1
    29     7    29    1
    30    10    30    1
    31    10    31    1
    32    10    32    1
    33    13    33    1
