@<TRIPOS>MOLECULE

  59   63
SMALL
USER_CHARGES
@<TRIPOS>ATOM
   1 C1          -3.0952     3.2727    -1.3985 C.3          1    LIG   0.0000
   2 C2          -1.7992     2.4785    -1.4024 C.3          1    LIG   0.0000
   3 C3          -0.7147     3.2818    -2.1017 C.3          1    LIG   0.0000
   4 C4          -1.3751     2.1936     0.0292 C.3          1    LIG   0.0000
   5 N5          -0.1226     1.4260     0.0254 N.am         1    LIG   0.0000
   6 C6           1.1068     2.0766     0.0511 C.2          1    LIG   0.0000
   7 C7           1.3152     3.3815     0.0796 C.2          1    LIG   0.0000
   8 C8           0.2361     4.2577     0.0864 C.1          1    LIG   0.0000
   9 N9          -0.6489     4.9762     0.0920 N.1          1    LIG   0.0000
  10 C10          2.7349     3.9241     0.1051 C.2          1    LIG   0.0000
  11 O11          3.6665     3.1677     0.0992 O.2          1    LIG   0.0000
  12 N12          2.9509     5.2766     0.1347 N.am         1    LIG   0.0000
  13 C13          4.2598     5.7768     0.1582 C.ar         1    LIG   0.0000
  14 C14          5.2760     4.9569    -0.3188 C.ar         1    LIG   0.0000
  15 C15          6.5917     5.4074    -0.3166 C.ar         1    LIG   0.0000
  16 C16          6.9043     6.6762     0.1604 C.ar         1    LIG   0.0000
  17 C17          5.8807     7.4893     0.6353 C.ar         1    LIG   0.0000
  18 C18          6.1953     8.7572     1.1125 C.ar         1    LIG   0.0000
  19 C19          5.1990     9.5988     1.5957 C.ar         1    LIG   0.0000
  20 C20          3.8748     9.1745     1.6056 C.ar         1    LIG   0.0000
  21 C21          3.5739     7.9043     1.1261 C.ar         1    LIG   0.0000
  22 C22          4.5595     7.0504     0.6385 C.ar         1    LIG   0.0000
  23 S23          2.3434     0.8607     0.0412 S.3          1    LIG   0.0000
  24 C24          1.2797    -0.5054     0.0107 C.2          1    LIG   0.0000
  25 C25          1.6209    -1.7807    -0.0063 C.2          1    LIG   0.0000
  26 C26          0.5960    -2.8046    -0.0325 C.2          1    LIG   0.0000
  27 C27          0.4299    -3.7782    -1.0389 C.2          1    LIG   0.0000
  28 N28         -0.6071    -4.4848    -0.6627 N.2          1    LIG   0.0000
  29 N29         -1.1130    -4.0556     0.4832 N.pl3        1    LIG   0.0000
  30 C30         -2.1811    -4.4871     1.2326 C.2          1    LIG   0.0000
  31 C31         -2.5422    -3.8900     2.4133 C.2          1    LIG   0.0000
  32 C32         -1.7843    -2.7846     2.8863 C.2          1    LIG   0.0000
  33 C33         -0.7224    -2.3652     2.1278 C.2          1    LIG   0.0000
  34 C34         -0.3712    -3.0022     0.9042 C.2          1    LIG   0.0000
  35 C35         -0.0607     0.0331     0.0061 C.2          1    LIG   0.0000
  36 O36         -1.0558    -0.6740    -0.0186 O.2          1    LIG   0.0000
  37 H           -3.3741     3.4601    -2.3403 H            1    LIG   0.0000
  38 H           -3.8086     2.7441    -0.9384 H            1    LIG   0.0000
  39 H           -2.9554     4.1363    -0.9141 H            1    LIG   0.0000
  40 H           -1.9389     1.6148    -1.8868 H            1    LIG   0.0000
  41 H           -0.9937     3.4692    -3.0436 H            1    LIG   0.0000
  42 H           -0.5750     4.1455    -1.6173 H            1    LIG   0.0000
  43 H            0.1379     2.7593    -2.1043 H            1    LIG   0.0000
  44 H           -1.2354     3.0572     0.5135 H            1    LIG   0.0000
  45 H           -2.0886     1.6651     0.4892 H            1    LIG   0.0000
  46 H            2.1745     5.9069     0.1396 H            1    LIG   0.0000
  47 H            5.0609     4.0432    -0.6635 H            1    LIG   0.0000
  48 H            7.3194     4.8141    -0.6609 H            1    LIG   0.0000
  49 H            7.8508     6.9989     0.1618 H            1    LIG   0.0000
  50 H            7.1463     9.0665     1.1082 H            1    LIG   0.0000
  51 H            5.4350    10.5090     1.9361 H            1    LIG   0.0000
  52 H            3.1515     9.7723     1.9514 H            1    LIG   0.0000
  53 H            2.6228     7.5956     1.1317 H            1    LIG   0.0000
  54 H            2.5867    -2.0399    -0.0010 H            1    LIG   0.0000
  55 H            0.9841    -3.9025    -1.8620 H            1    LIG   0.0000
  56 H           -2.7153    -5.2662     0.9046 H            1    LIG   0.0000
  57 H           -3.3269    -4.2272     2.9335 H            1    LIG   0.0000
  58 H           -2.0182    -2.3277     3.7445 H            1    LIG   0.0000
  59 H           -0.1778    -1.5881     2.4436 H            1    LIG   0.0000
@<TRIPOS>BOND
   1        1        2 1
   2        2        3 1
   3        2        4 1
   4        4        5 1
   5        5        6 1
   6        6        7 2
   7        7        8 1
   8        8        9 3
   9        7       10 1
  10       10       11 2
  11       10       12 am
  12       12       13 1
  13       13       14 ar
  14       14       15 ar
  15       15       16 ar
  16       16       17 ar
  17       17       18 ar
  18       18       19 ar
  19       19       20 ar
  20       20       21 ar
  21       21       22 ar
  22       22       13 ar
  23       22       17 ar
  24        6       23 1
  25       23       24 1
  26       24       25 2
  27       25       26 1
  28       26       27 1
  29       27       28 2
  30       28       29 1
  31       29       30 1
  32       30       31 2
  33       31       32 1
  34       32       33 2
  35       33       34 1
  36       34       26 2
  37       34       29 1
  38       24       35 1
  39       35        5 am
  40       35       36 2
  41        1       37 1
  42        1       38 1
  43        1       39 1
  44        2       40 1
  45        3       41 1
  46        3       42 1
  47        3       43 1
  48        4       44 1
  49        4       45 1
  50       12       46 1
  51       14       47 1
  52       15       48 1
  53       16       49 1
  54       18       50 1
  55       19       51 1
  56       20       52 1
  57       21       53 1
  58       25       54 1
  59       27       55 1
  60       30       56 1
  61       31       57 1
  62       32       58 1
  63       33       59 1

@<TRIPOS>MOLECULE

  59   63
SMALL
USER_CHARGES
@<TRIPOS>ATOM
   1 C1          -3.0952     3.2727    -1.3985 C.3          1    LIG   0.0000
   2 C2          -1.7992     2.4785    -1.4024 C.3          1    LIG   0.0000
   3 C3          -0.7147     3.2818    -2.1017 C.3          1    LIG   0.0000
   4 C4          -1.3751     2.1936     0.0292 C.3          1    LIG   0.0000
   5 N5          -0.1226     1.4260     0.0254 N.am         1    LIG   0.0000
   6 C6           1.1068     2.0766     0.0511 C.2          1    LIG   0.0000
   7 C7           1.3152     3.3815     0.0796 C.2          1    LIG   0.0000
   8 C8           0.2361     4.2577     0.0864 C.1          1    LIG   0.0000
   9 N9          -0.6489     4.9762     0.0920 N.1          1    LIG   0.0000
  10 C10          2.7349     3.9241     0.1051 C.2          1    LIG   0.0000
  11 O11          3.6665     3.1677     0.0992 O.2          1    LIG   0.0000
  12 N12          2.9509     5.2766     0.1347 N.am         1    LIG   0.0000
  13 C13          4.2598     5.7768     0.1582 C.ar         1    LIG   0.0000
  14 C14          4.6350     6.5609     1.2430 C.ar         1    LIG   0.0000
  15 C15          5.9230     7.0809     1.3127 C.ar         1    LIG   0.0000
  16 C16          6.8452     6.8242     0.3034 C.ar         1    LIG   0.0000
  17 C17          6.4605     6.0385    -0.7778 C.ar         1    LIG   0.0000
  18 C18          7.3837     5.7836    -1.7863 C.ar         1    LIG   0.0000
  19 C19          7.0358     5.0026    -2.8833 C.ar         1    LIG   0.0000
  20 C20          5.7549     4.4698    -2.9793 C.ar         1    LIG   0.0000
  21 C21          4.8414     4.7327    -1.9644 C.ar         1    LIG   0.0000
  22 C22          5.1744     5.5119    -0.8596 C.ar         1    LIG   0.0000
  23 S23          2.3434     0.8607     0.0412 S.3          1    LIG   0.0000
  24 C24          1.2797    -0.5054     0.0107 C.2          1    LIG   0.0000
  25 C25          1.6209    -1.7807    -0.0063 C.2          1    LIG   0.0000
  26 C26          0.5960    -2.8046    -0.0325 C.2          1    LIG   0.0000
  27 C27          0.4299    -3.7782    -1.0389 C.2          1    LIG   0.0000
  28 N28         -0.6071    -4.4848    -0.6627 N.2          1    LIG   0.0000
  29 N29         -1.1130    -4.0556     0.4832 N.pl3        1    LIG   0.0000
  30 C30         -2.1811    -4.4871     1.2326 C.2          1    LIG   0.0000
  31 C31         -2.5422    -3.8900     2.4133 C.2          1    LIG   0.0000
  32 C32         -1.7843    -2.7846     2.8863 C.2          1    LIG   0.0000
  33 C33         -0.7224    -2.3652     2.1278 C.2          1    LIG   0.0000
  34 C34         -0.3712    -3.0022     0.9042 C.2          1    LIG   0.0000
  35 C35         -0.0607     0.0331     0.0061 C.2          1    LIG   0.0000
  36 O36         -1.0558    -0.6740    -0.0186 O.2          1    LIG   0.0000
  37 H           -3.3741     3.4601    -2.3403 H            1    LIG   0.0000
  38 H           -3.8086     2.7441    -0.9384 H            1    LIG   0.0000
  39 H           -2.9554     4.1363    -0.9141 H            1    LIG   0.0000
  40 H           -1.9389     1.6148    -1.8868 H            1    LIG   0.0000
  41 H           -0.9937     3.4692    -3.0436 H            1    LIG   0.0000
  42 H           -0.5750     4.1455    -1.6173 H            1    LIG   0.0000
  43 H            0.1379     2.7593    -2.1043 H            1    LIG   0.0000
  44 H           -1.2354     3.0572     0.5135 H            1    LIG   0.0000
  45 H           -2.0886     1.6651     0.4892 H            1    LIG   0.0000
  46 H            2.1745     5.9069     0.1396 H            1    LIG   0.0000
  47 H            3.9788     6.7510     1.9733 H            1    LIG   0.0000
  48 H            6.1884     7.6442     2.0952 H            1    LIG   0.0000
  49 H            7.7709     7.1989     0.3545 H            1    LIG   0.0000
  50 H            8.3058     6.1652    -1.7222 H            1    LIG   0.0000
  51 H            7.7067     4.8243    -3.6031 H            1    LIG   0.0000
  52 H            5.4953     3.9074    -3.7644 H            1    LIG   0.0000
  53 H            3.9192     4.3515    -2.0299 H            1    LIG   0.0000
  54 H            2.5867    -2.0399    -0.0010 H            1    LIG   0.0000
  55 H            0.9841    -3.9025    -1.8620 H            1    LIG   0.0000
  56 H           -2.7153    -5.2662     0.9046 H            1    LIG   0.0000
  57 H           -3.3269    -4.2272     2.9335 H            1    LIG   0.0000
  58 H           -2.0182    -2.3277     3.7445 H            1    LIG   0.0000
  59 H           -0.1778    -1.5881     2.4436 H            1    LIG   0.0000
@<TRIPOS>BOND
   1        1        2 1
   2        2        3 1
   3        2        4 1
   4        4        5 1
   5        5        6 1
   6        6        7 2
   7        7        8 1
   8        8        9 3
   9        7       10 1
  10       10       11 2
  11       10       12 am
  12       12       13 1
  13       13       14 ar
  14       14       15 ar
  15       15       16 ar
  16       16       17 ar
  17       17       18 ar
  18       18       19 ar
  19       19       20 ar
  20       20       21 ar
  21       21       22 ar
  22       22       13 ar
  23       22       17 ar
  24        6       23 1
  25       23       24 1
  26       24       25 2
  27       25       26 1
  28       26       27 1
  29       27       28 2
  30       28       29 1
  31       29       30 1
  32       30       31 2
  33       31       32 1
  34       32       33 2
  35       33       34 1
  36       34       26 2
  37       34       29 1
  38       24       35 1
  39       35        5 am
  40       35       36 2
  41        1       37 1
  42        1       38 1
  43        1       39 1
  44        2       40 1
  45        3       41 1
  46        3       42 1
  47        3       43 1
  48        4       44 1
  49        4       45 1
  50       12       46 1
  51       14       47 1
  52       15       48 1
  53       16       49 1
  54       18       50 1
  55       19       51 1
  56       20       52 1
  57       21       53 1
  58       25       54 1
  59       27       55 1
  60       30       56 1
  61       31       57 1
  62       32       58 1
  63       33       59 1

@<TRIPOS>MOLECULE

  59   63
SMALL
USER_CHARGES
@<TRIPOS>ATOM
   1 C1          -2.7694     3.6484    -1.4202 C.3          1    LIG   0.0000
   2 C2          -1.7992     2.4785    -1.4024 C.3          1    LIG   0.0000
   3 C3          -0.5747     2.8231    -2.2345 C.3          1    LIG   0.0000
   4 C4          -1.3751     2.1936     0.0292 C.3          1    LIG   0.0000
   5 N5          -0.1226     1.4260     0.0254 N.am         1    LIG   0.0000
   6 C6           1.1068     2.0766     0.0511 C.2          1    LIG   0.0000
   7 C7           1.3152     3.3815     0.0796 C.2          1    LIG   0.0000
   8 C8           0.2361     4.2577     0.0864 C.1          1    LIG   0.0000
   9 N9          -0.6489     4.9762     0.0920 N.1          1    LIG   0.0000
  10 C10          2.7349     3.9241     0.1051 C.2          1    LIG   0.0000
  11 O11          3.2412     4.3275    -0.9053 O.2          1    LIG   0.0000
  12 N12          3.4364     3.9525     1.2815 N.am         1    LIG   0.0000
  13 C13          4.8325     3.8316     1.2679 C.ar         1    LIG   0.0000
  14 C14          5.5852     4.9945     1.3840 C.ar         1    LIG   0.0000
  15 C15          6.9743     4.9275     1.3757 C.ar         1    LIG   0.0000
  16 C16          7.6228     3.7031     1.2518 C.ar         1    LIG   0.0000
  17 C17          6.8611     2.5452     1.1365 C.ar         1    LIG   0.0000
  18 C18          7.5113     1.3219     1.0118 C.ar         1    LIG   0.0000
  19 C19          6.7837     0.1426     0.8940 C.ar         1    LIG   0.0000
  20 C20          5.3936     0.1797     0.8991 C.ar         1    LIG   0.0000
  21 C21          4.7560     1.4092     1.0239 C.ar         1    LIG   0.0000
  22 C22          5.4700     2.5985     1.1434 C.ar         1    LIG   0.0000
  23 S23          2.3434     0.8607     0.0412 S.3          1    LIG   0.0000
  24 C24          1.2797    -0.5054     0.0107 C.2          1    LIG   0.0000
  25 C25          1.6209    -1.7807    -0.0063 C.2          1    LIG   0.0000
  26 C26          0.5960    -2.8046    -0.0325 C.2          1    LIG   0.0000
  27 C27          0.4057    -3.8048     0.9430 C.2          1    LIG   0.0000
  28 N28         -0.6179    -4.5043     0.5197 N.2          1    LIG   0.0000
  29 N29         -1.0953    -4.0448    -0.6266 N.pl3        1    LIG   0.0000
  30 C30         -2.1373    -4.4629    -1.4192 C.2          1    LIG   0.0000
  31 C31         -2.4705    -3.8333    -2.5912 C.2          1    LIG   0.0000
  32 C32         -1.7150    -2.7029    -3.0050 C.2          1    LIG   0.0000
  33 C33         -0.6783    -2.2981    -2.2046 C.2          1    LIG   0.0000
  34 C34         -0.3527    -2.9720    -0.9937 C.2          1    LIG   0.0000
  35 C35         -0.0607     0.0331     0.0061 C.2          1    LIG   0.0000
  36 O36         -1.0558    -0.6740    -0.0186 O.2          1    LIG   0.0000
  37 H           -3.0484     3.8358    -2.3621 H            1    LIG   0.0000
  38 H           -3.5750     3.4216    -0.8728 H            1    LIG   0.0000
  39 H           -2.3232     4.4573    -1.0375 H            1    LIG   0.0000
  40 H           -2.2453     1.6695    -1.7852 H            1    LIG   0.0000
  41 H           -0.8536     3.0105    -3.1763 H            1    LIG   0.0000
  42 H           -0.1285     3.6320    -1.8517 H            1    LIG   0.0000
  43 H            0.0637     2.0534    -2.2228 H            1    LIG   0.0000
  44 H           -1.2354     3.0572     0.5135 H            1    LIG   0.0000
  45 H           -2.0886     1.6651     0.4892 H            1    LIG   0.0000
  46 H            2.9522     4.0594     2.1499 H            1    LIG   0.0000
  47 H            5.1279     5.8793     1.4733 H            1    LIG   0.0000
  48 H            7.5116     5.7667     1.4597 H            1    LIG   0.0000
  49 H            8.6217     3.6562     1.2456 H            1    LIG   0.0000
  50 H            8.5108     1.2902     1.0069 H            1    LIG   0.0000
  51 H            7.2601    -0.7322     0.8056 H            1    LIG   0.0000
  52 H            4.8618    -0.6629     0.8146 H            1    LIG   0.0000
  53 H            3.7565     1.4400     1.0278 H            1    LIG   0.0000
  54 H            2.5867    -2.0399    -0.0010 H            1    LIG   0.0000
  55 H            0.9372    -3.9490     1.7777 H            1    LIG   0.0000
  56 H           -2.6730    -5.2563    -1.1303 H            1    LIG   0.0000
  57 H           -3.2335    -4.1647    -3.1463 H            1    LIG   0.0000
  58 H           -1.9325    -2.2185    -3.8524 H            1    LIG   0.0000
  59 H           -0.1344    -1.5053    -2.4796 H            1    LIG   0.0000
@<TRIPOS>BOND
   1        1        2 1
   2        2        3 1
   3        2        4 1
   4        4        5 1
   5        5        6 1
   6        6        7 2
   7        7        8 1
   8        8        9 3
   9        7       10 1
  10       10       11 2
  11       10       12 am
  12       12       13 1
  13       13       14 ar
  14       14       15 ar
  15       15       16 ar
  16       16       17 ar
  17       17       18 ar
  18       18       19 ar
  19       19       20 ar
  20       20       21 ar
  21       21       22 ar
  22       22       13 ar
  23       22       17 ar
  24        6       23 1
  25       23       24 1
  26       24       25 2
  27       25       26 1
  28       26       27 1
  29       27       28 2
  30       28       29 1
  31       29       30 1
  32       30       31 2
  33       31       32 1
  34       32       33 2
  35       33       34 1
  36       34       26 2
  37       34       29 1
  38       24       35 1
  39       35        5 am
  40       35       36 2
  41        1       37 1
  42        1       38 1
  43        1       39 1
  44        2       40 1
  45        3       41 1
  46        3       42 1
  47        3       43 1
  48        4       44 1
  49        4       45 1
  50       12       46 1
  51       14       47 1
  52       15       48 1
  53       16       49 1
  54       18       50 1
  55       19       51 1
  56       20       52 1
  57       21       53 1
  58       25       54 1
  59       27       55 1
  60       30       56 1
  61       31       57 1
  62       32       58 1
  63       33       59 1

@<TRIPOS>MOLECULE

  59   63
SMALL
USER_CHARGES
@<TRIPOS>ATOM
   1 C1          -3.1111     3.2324     1.4673 C.3          1    LIG   0.0000
   2 C2          -1.8151     2.4382     1.4634 C.3          1    LIG   0.0000
   3 C3          -2.0356     1.1054     2.1600 C.3          1    LIG   0.0000
   4 C4          -1.3751     2.1936     0.0292 C.3          1    LIG   0.0000
   5 N5          -0.1226     1.4260     0.0254 N.am         1    LIG   0.0000
   6 C6           1.1068     2.0766     0.0511 C.2          1    LIG   0.0000
   7 C7           1.3152     3.3815     0.0796 C.2          1    LIG   0.0000
   8 C8           2.6135     3.8777     0.1029 C.1          1    LIG   0.0000
   9 N9           3.6782     4.2846     0.1220 N.1          1    LIG   0.0000
  10 C10          0.1352     4.3396     0.0871 C.2          1    LIG   0.0000
  11 O11         -0.2272     4.8371     1.1172 O.2          1    LIG   0.0000
  12 N12         -0.5145     4.6352    -1.0823 N.am         1    LIG   0.0000
  13 C13         -1.6025     5.5185    -1.0754 C.ar         1    LIG   0.0000
  14 C14         -1.7001     6.4190    -0.0208 C.ar         1    LIG   0.0000
  15 C15         -2.7614     7.3162     0.0315 C.ar         1    LIG   0.0000
  16 C16         -3.7321     7.3227    -0.9649 C.ar         1    LIG   0.0000
  17 C17         -3.6257     6.4182    -2.0160 C.ar         1    LIG   0.0000
  18 C18         -4.5977     6.4257    -3.0109 C.ar         1    LIG   0.0000
  19 C19         -4.5254     5.5361    -4.0775 C.ar         1    LIG   0.0000
  20 C20         -3.4753     4.6278    -4.1554 C.ar         1    LIG   0.0000
  21 C21         -2.5105     4.6305    -3.1540 C.ar         1    LIG   0.0000
  22 C22         -2.5683     5.5150    -2.0803 C.ar         1    LIG   0.0000
  23 S23          2.3434     0.8607     0.0412 S.3          1    LIG   0.0000
  24 C24          1.2797    -0.5054     0.0107 C.2          1    LIG   0.0000
  25 C25          1.6209    -1.7807    -0.0063 C.2          1    LIG   0.0000
  26 C26          0.5960    -2.8046    -0.0325 C.2          1    LIG   0.0000
  27 C27          0.4299    -3.7782    -1.0389 C.2          1    LIG   0.0000
  28 N28         -0.6071    -4.4848    -0.6627 N.2          1    LIG   0.0000
  29 N29         -1.1130    -4.0556     0.4832 N.pl3        1    LIG   0.0000
  30 C30         -2.1811    -4.4871     1.2326 C.2          1    LIG   0.0000
  31 C31         -2.5422    -3.8900     2.4133 C.2          1    LIG   0.0000
  32 C32         -1.7843    -2.7846     2.8863 C.2          1    LIG   0.0000
  33 C33         -0.7224    -2.3652     2.1278 C.2          1    LIG   0.0000
  34 C34         -0.3712    -3.0022     0.9042 C.2          1    LIG   0.0000
  35 C35         -0.0607     0.0331     0.0061 C.2          1    LIG   0.0000
  36 O36         -1.0558    -0.6740    -0.0186 O.2          1    LIG   0.0000
  37 H           -3.4006     3.3933     2.4109 H            1    LIG   0.0000
  38 H           -2.9661     4.1093     1.0090 H            1    LIG   0.0000
  39 H           -3.8193     2.7171     0.9847 H            1    LIG   0.0000
  40 H           -1.1069     2.9535     1.9460 H            1    LIG   0.0000
  41 H           -2.3250     1.2663     3.1036 H            1    LIG   0.0000
  42 H           -2.7437     0.5901     1.6774 H            1    LIG   0.0000
  43 H           -1.1829     0.5829     2.1575 H            1    LIG   0.0000
  44 H           -2.0833     1.6783    -0.4535 H            1    LIG   0.0000
  45 H           -1.2301     3.0705    -0.4292 H            1    LIG   0.0000
  46 H           -0.2125     4.2206    -1.9407 H            1    LIG   0.0000
  47 H           -1.0071     6.4216     0.7001 H            1    LIG   0.0000
  48 H           -2.8273     7.9622     0.7920 H            1    LIG   0.0000
  49 H           -4.4950     7.9681    -0.9260 H            1    LIG   0.0000
  50 H           -5.3551     7.0765    -2.9588 H            1    LIG   0.0000
  51 H           -5.2286     5.5496    -4.7884 H            1    LIG   0.0000
  52 H           -3.4150     3.9841    -4.9183 H            1    LIG   0.0000
  53 H           -1.7539     3.9787    -3.2064 H            1    LIG   0.0000
  54 H            2.5867    -2.0399    -0.0010 H            1    LIG   0.0000
  55 H            0.9841    -3.9025    -1.8620 H            1    LIG   0.0000
  56 H           -2.7153    -5.2662     0.9046 H            1    LIG   0.0000
  57 H           -3.3269    -4.2272     2.9335 H            1    LIG   0.0000
  58 H           -2.0182    -2.3277     3.7445 H            1    LIG   0.0000
  59 H           -0.1778    -1.5881     2.4436 H            1    LIG   0.0000
@<TRIPOS>BOND
   1        1        2 1
   2        2        3 1
   3        2        4 1
   4        4        5 1
   5        5        6 1
   6        6        7 2
   7        7        8 1
   8        8        9 3
   9        7       10 1
  10       10       11 2
  11       10       12 am
  12       12       13 1
  13       13       14 ar
  14       14       15 ar
  15       15       16 ar
  16       16       17 ar
  17       17       18 ar
  18       18       19 ar
  19       19       20 ar
  20       20       21 ar
  21       21       22 ar
  22       22       13 ar
  23       22       17 ar
  24        6       23 1
  25       23       24 1
  26       24       25 2
  27       25       26 1
  28       26       27 1
  29       27       28 2
  30       28       29 1
  31       29       30 1
  32       30       31 2
  33       31       32 1
  34       32       33 2
  35       33       34 1
  36       34       26 2
  37       34       29 1
  38       24       35 1
  39       35        5 am
  40       35       36 2
  41        1       37 1
  42        1       38 1
  43        1       39 1
  44        2       40 1
  45        3       41 1
  46        3       42 1
  47        3       43 1
  48        4       44 1
  49        4       45 1
  50       12       46 1
  51       14       47 1
  52       15       48 1
  53       16       49 1
  54       18       50 1
  55       19       51 1
  56       20       52 1
  57       21       53 1
  58       25       54 1
  59       27       55 1
  60       30       56 1
  61       31       57 1
  62       32       58 1
  63       33       59 1

@<TRIPOS>MOLECULE

  59   63
SMALL
USER_CHARGES
@<TRIPOS>ATOM
   1 C1          -3.1111     3.2324     1.4673 C.3          1    LIG   0.0000
   2 C2          -1.8151     2.4382     1.4634 C.3          1    LIG   0.0000
   3 C3          -2.0356     1.1054     2.1600 C.3          1    LIG   0.0000
   4 C4          -1.3751     2.1936     0.0292 C.3          1    LIG   0.0000
   5 N5          -0.1226     1.4260     0.0254 N.am         1    LIG   0.0000
   6 C6           1.1068     2.0766     0.0511 C.2          1    LIG   0.0000
   7 C7           1.3152     3.3815     0.0796 C.2          1    LIG   0.0000
   8 C8           2.6135     3.8777     0.1029 C.1          1    LIG   0.0000
   9 N9           3.6782     4.2846     0.1220 N.1          1    LIG   0.0000
  10 C10          0.1352     4.3396     0.0871 C.2          1    LIG   0.0000
  11 O11         -0.2272     4.8371     1.1172 O.2          1    LIG   0.0000
  12 N12         -0.5145     4.6352    -1.0823 N.am         1    LIG   0.0000
  13 C13         -1.6025     5.5185    -1.0754 C.ar         1    LIG   0.0000
  14 C14         -2.8299     5.0391    -1.5182 C.ar         1    LIG   0.0000
  15 C15         -3.9401     5.8766    -1.5308 C.ar         1    LIG   0.0000
  16 C16         -3.8357     7.1962    -1.1031 C.ar         1    LIG   0.0000
  17 C17         -2.6036     7.6666    -0.6616 C.ar         1    LIG   0.0000
  18 C18         -2.5010     8.9865    -0.2351 C.ar         1    LIG   0.0000
  19 C19         -1.2857     9.4929     0.2130 C.ar         1    LIG   0.0000
  20 C20         -0.1590     8.6782     0.2363 C.ar         1    LIG   0.0000
  21 C21         -0.2751     7.3607    -0.1933 C.ar         1    LIG   0.0000
  22 C22         -1.4846     6.8386    -0.6439 C.ar         1    LIG   0.0000
  23 S23          2.3434     0.8607     0.0412 S.3          1    LIG   0.0000
  24 C24          1.2797    -0.5054     0.0107 C.2          1    LIG   0.0000
  25 C25          1.6209    -1.7807    -0.0063 C.2          1    LIG   0.0000
  26 C26          0.5960    -2.8046    -0.0325 C.2          1    LIG   0.0000
  27 C27          0.4299    -3.7782    -1.0389 C.2          1    LIG   0.0000
  28 N28         -0.6071    -4.4848    -0.6627 N.2          1    LIG   0.0000
  29 N29         -1.1130    -4.0556     0.4832 N.pl3        1    LIG   0.0000
  30 C30         -2.1811    -4.4871     1.2326 C.2          1    LIG   0.0000
  31 C31         -2.5422    -3.8900     2.4133 C.2          1    LIG   0.0000
  32 C32         -1.7843    -2.7846     2.8863 C.2          1    LIG   0.0000
  33 C33         -0.7224    -2.3652     2.1278 C.2          1    LIG   0.0000
  34 C34         -0.3712    -3.0022     0.9042 C.2          1    LIG   0.0000
  35 C35         -0.0607     0.0331     0.0061 C.2          1    LIG   0.0000
  36 O36         -1.0558    -0.6740    -0.0186 O.2          1    LIG   0.0000
  37 H           -3.4006     3.3933     2.4109 H            1    LIG   0.0000
  38 H           -2.9661     4.1093     1.0090 H            1    LIG   0.0000
  39 H           -3.8193     2.7171     0.9847 H            1    LIG   0.0000
  40 H           -1.1069     2.9535     1.9460 H            1    LIG   0.0000
  41 H           -2.3250     1.2663     3.1036 H            1    LIG   0.0000
  42 H           -2.7437     0.5901     1.6774 H            1    LIG   0.0000
  43 H           -1.1829     0.5829     2.1575 H            1    LIG   0.0000
  44 H           -2.0833     1.6783    -0.4535 H            1    LIG   0.0000
  45 H           -1.2301     3.0705    -0.4292 H            1    LIG   0.0000
  46 H           -0.2125     4.2206    -1.9407 H            1    LIG   0.0000
  47 H           -2.9145     4.0920    -1.8278 H            1    LIG   0.0000
  48 H           -4.8210     5.5272    -1.8500 H            1    LIG   0.0000
  49 H           -4.6346     7.7976    -1.1129 H            1    LIG   0.0000
  50 H           -3.3082     9.5765    -0.2508 H            1    LIG   0.0000
  51 H           -1.2220    10.4430     0.5183 H            1    LIG   0.0000
  52 H            0.7192     9.0334     0.5564 H            1    LIG   0.0000
  53 H            0.5329     6.7717    -0.1781 H            1    LIG   0.0000
  54 H            2.5867    -2.0399    -0.0010 H            1    LIG   0.0000
  55 H            0.9841    -3.9025    -1.8620 H            1    LIG   0.0000
  56 H           -2.7153    -5.2662     0.9046 H            1    LIG   0.0000
  57 H           -3.3269    -4.2272     2.9335 H            1    LIG   0.0000
  58 H           -2.0182    -2.3277     3.7445 H            1    LIG   0.0000
  59 H           -0.1778    -1.5881     2.4436 H            1    LIG   0.0000
@<TRIPOS>BOND
   1        1        2 1
   2        2        3 1
   3        2        4 1
   4        4        5 1
   5        5        6 1
   6        6        7 2
   7        7        8 1
   8        8        9 3
   9        7       10 1
  10       10       11 2
  11       10       12 am
  12       12       13 1
  13       13       14 ar
  14       14       15 ar
  15       15       16 ar
  16       16       17 ar
  17       17       18 ar
  18       18       19 ar
  19       19       20 ar
  20       20       21 ar
  21       21       22 ar
  22       22       13 ar
  23       22       17 ar
  24        6       23 1
  25       23       24 1
  26       24       25 2
  27       25       26 1
  28       26       27 1
  29       27       28 2
  30       28       29 1
  31       29       30 1
  32       30       31 2
  33       31       32 1
  34       32       33 2
  35       33       34 1
  36       34       26 2
  37       34       29 1
  38       24       35 1
  39       35        5 am
  40       35       36 2
  41        1       37 1
  42        1       38 1
  43        1       39 1
  44        2       40 1
  45        3       41 1
  46        3       42 1
  47        3       43 1
  48        4       44 1
  49        4       45 1
  50       12       46 1
  51       14       47 1
  52       15       48 1
  53       16       49 1
  54       18       50 1
  55       19       51 1
  56       20       52 1
  57       21       53 1
  58       25       54 1
  59       27       55 1
  60       30       56 1
  61       31       57 1
  62       32       58 1
  63       33       59 1

@<TRIPOS>MOLECULE

  59   63
SMALL
USER_CHARGES
@<TRIPOS>ATOM
   1 C1          -3.1111     3.2324     1.4673 C.3          1    LIG   0.0000
   2 C2          -1.8151     2.4382     1.4634 C.3          1    LIG   0.0000
   3 C3          -2.0356     1.1054     2.1600 C.3          1    LIG   0.0000
   4 C4          -1.3751     2.1936     0.0292 C.3          1    LIG   0.0000
   5 N5          -0.1226     1.4260     0.0254 N.am         1    LIG   0.0000
   6 C6           1.1068     2.0766     0.0511 C.2          1    LIG   0.0000
   7 C7           1.3152     3.3815     0.0796 C.2          1    LIG   0.0000
   8 C8           0.2361     4.2577     0.0864 C.1          1    LIG   0.0000
   9 N9          -0.6489     4.9762     0.0920 N.1          1    LIG   0.0000
  10 C10          2.7349     3.9241     0.1051 C.2          1    LIG   0.0000
  11 O11          3.6665     3.1677     0.0992 O.2          1    LIG   0.0000
  12 N12          2.9509     5.2766     0.1347 N.am         1    LIG   0.0000
  13 C13          4.2598     5.7768     0.1582 C.ar         1    LIG   0.0000
  14 C14          5.2664     4.9379     0.6220 C.ar         1    LIG   0.0000
  15 C15          6.5817     5.3876     0.6649 C.ar         1    LIG   0.0000
  16 C16          6.9033     6.6748     0.2469 C.ar         1    LIG   0.0000
  17 C17          5.8893     7.5066    -0.2158 C.ar         1    LIG   0.0000
  18 C18          6.2127     8.7936    -0.6327 C.ar         1    LIG   0.0000
  19 C19          5.2261     9.6545    -1.1013 C.ar         1    LIG   0.0000
  20 C20          3.9024     9.2315    -1.1551 C.ar         1    LIG   0.0000
  21 C21          3.5926     7.9427    -0.7349 C.ar         1    LIG   0.0000
  22 C22          4.5687     7.0687    -0.2640 C.ar         1    LIG   0.0000
  23 S23          2.3434     0.8607     0.0412 S.3          1    LIG   0.0000
  24 C24          1.2797    -0.5054     0.0107 C.2          1    LIG   0.0000
  25 C25          1.6209    -1.7807    -0.0063 C.2          1    LIG   0.0000
  26 C26          0.5960    -2.8046    -0.0325 C.2          1    LIG   0.0000
  27 C27         -0.4032    -2.9952     0.9439 C.2          1    LIG   0.0000
  28 N28         -1.1005    -4.0214     0.5233 N.2          1    LIG   0.0000
  29 N29         -0.6424    -4.4983    -0.6239 N.pl3        1    LIG   0.0000
  30 C30         -1.0551    -5.5462    -1.4112 C.2          1    LIG   0.0000
  31 C31         -0.4281    -5.8778    -2.5851 C.2          1    LIG   0.0000
  32 C32          0.6895    -5.1094    -3.0100 C.2          1    LIG   0.0000
  33 C33          1.0899    -4.0677    -2.2140 C.2          1    LIG   0.0000
  34 C34          0.4220    -3.7473    -0.9985 C.2          1    LIG   0.0000
  35 C35         -0.0607     0.0331     0.0061 C.2          1    LIG   0.0000
  36 O36         -1.0558    -0.6740    -0.0186 O.2          1    LIG   0.0000
  37 H           -3.4006     3.3933     2.4109 H            1    LIG   0.0000
  38 H           -2.9661     4.1093     1.0090 H            1    LIG   0.0000
  39 H           -3.8193     2.7171     0.9847 H            1    LIG   0.0000
  40 H           -1.1069     2.9535     1.9460 H            1    LIG   0.0000
  41 H           -2.3250     1.2663     3.1036 H            1    LIG   0.0000
  42 H           -2.7437     0.5901     1.6774 H            1    LIG   0.0000
  43 H           -1.1829     0.5829     2.1575 H            1    LIG   0.0000
  44 H           -2.0833     1.6783    -0.4535 H            1    LIG   0.0000
  45 H           -1.2301     3.0705    -0.4292 H            1    LIG   0.0000
  46 H            2.1745     5.9069     0.1396 H            1    LIG   0.0000
  47 H            5.0448     4.0109     0.9249 H            1    LIG   0.0000
  48 H            7.3025     4.7804     0.9992 H            1    LIG   0.0000
  49 H            7.8494     6.9971     0.2785 H            1    LIG   0.0000
  50 H            7.1630     9.1025    -0.5951 H            1    LIG   0.0000
  51 H            5.4685    10.5777    -1.3995 H            1    LIG   0.0000
  52 H            3.1860     9.8435    -1.4902 H            1    LIG   0.0000
  53 H            2.6418     7.6349    -0.7719 H            1    LIG   0.0000
  54 H            2.5867    -2.0399    -0.0010 H            1    LIG   0.0000
  55 H           -0.5482    -2.4622     1.7775 H            1    LIG   0.0000
  56 H           -1.8426    -6.0877    -1.1170 H            1    LIG   0.0000
  57 H           -0.7524    -6.6485    -3.1337 H            1    LIG   0.0000
  58 H            1.1681    -5.3218    -3.8620 H            1    LIG   0.0000
  59 H            1.8751    -3.5163    -2.4957 H            1    LIG   0.0000
@<TRIPOS>BOND
   1        1        2 1
   2        2        3 1
   3        2        4 1
   4        4        5 1
   5        5        6 1
   6        6        7 2
   7        7        8 1
   8        8        9 3
   9        7       10 1
  10       10       11 2
  11       10       12 am
  12       12       13 1
  13       13       14 ar
  14       14       15 ar
  15       15       16 ar
  16       16       17 ar
  17       17       18 ar
  18       18       19 ar
  19       19       20 ar
  20       20       21 ar
  21       21       22 ar
  22       22       13 ar
  23       22       17 ar
  24        6       23 1
  25       23       24 1
  26       24       25 2
  27       25       26 1
  28       26       27 1
  29       27       28 2
  30       28       29 1
  31       29       30 1
  32       30       31 2
  33       31       32 1
  34       32       33 2
  35       33       34 1
  36       34       26 2
  37       34       29 1
  38       24       35 1
  39       35        5 am
  40       35       36 2
  41        1       37 1
  42        1       38 1
  43        1       39 1
  44        2       40 1
  45        3       41 1
  46        3       42 1
  47        3       43 1
  48        4       44 1
  49        4       45 1
  50       12       46 1
  51       14       47 1
  52       15       48 1
  53       16       49 1
  54       18       50 1
  55       19       51 1
  56       20       52 1
  57       21       53 1
  58       25       54 1
  59       27       55 1
  60       30       56 1
  61       31       57 1
  62       32       58 1
  63       33       59 1

@<TRIPOS>MOLECULE

  59   63
SMALL
USER_CHARGES
@<TRIPOS>ATOM
   1 C1          -3.1111     3.2324     1.4673 C.3          1    LIG   0.0000
   2 C2          -1.8151     2.4382     1.4634 C.3          1    LIG   0.0000
   3 C3          -2.0356     1.1054     2.1600 C.3          1    LIG   0.0000
   4 C4          -1.3751     2.1936     0.0292 C.3          1    LIG   0.0000
   5 N5          -0.1226     1.4260     0.0254 N.am         1    LIG   0.0000
   6 C6           1.1068     2.0766     0.0511 C.2          1    LIG   0.0000
   7 C7           1.3152     3.3815     0.0796 C.2          1    LIG   0.0000
   8 C8           0.2361     4.2577     0.0864 C.1          1    LIG   0.0000
   9 N9          -0.6489     4.9762     0.0920 N.1          1    LIG   0.0000
  10 C10          2.7349     3.9241     0.1051 C.2          1    LIG   0.0000
  11 O11          3.6665     3.1677     0.0992 O.2          1    LIG   0.0000
  12 N12          2.9509     5.2766     0.1347 N.am         1    LIG   0.0000
  13 C13          4.2598     5.7768     0.1582 C.ar         1    LIG   0.0000
  14 C14          4.6567     6.6041    -0.8861 C.ar         1    LIG   0.0000
  15 C15          5.9456     7.1258    -0.9086 C.ar         1    LIG   0.0000
  16 C16          6.8474     6.8275     0.1077 C.ar         1    LIG   0.0000
  17 C17          6.4410     5.9992     1.1483 C.ar         1    LIG   0.0000
  18 C18          7.3443     5.7014     2.1631 C.ar         1    LIG   0.0000
  19 C19          6.9746     4.8766     3.2201 C.ar         1    LIG   0.0000
  20 C20          5.6923     4.3407     3.2683 C.ar         1    LIG   0.0000
  21 C21          4.7991     4.6459     2.2471 C.ar         1    LIG   0.0000
  22 C22          5.1536     5.4704     1.1827 C.ar         1    LIG   0.0000
  23 S23          2.3434     0.8607     0.0412 S.3          1    LIG   0.0000
  24 C24          1.2797    -0.5054     0.0107 C.2          1    LIG   0.0000
  25 C25          1.6209    -1.7807    -0.0063 C.2          1    LIG   0.0000
  26 C26          0.5960    -2.8046    -0.0325 C.2          1    LIG   0.0000
  27 C27         -0.0006    -3.4021     1.0968 C.2          1    LIG   0.0000
  28 N28         -0.8601    -4.2644     0.6129 N.2          1    LIG   0.0000
  29 N29         -0.8675    -4.2707    -0.7111 N.pl3        1    LIG   0.0000
  30 C30         -1.5928    -5.0027    -1.6203 C.2          1    LIG   0.0000
  31 C31         -1.4438    -4.8512    -2.9753 C.2          1    LIG   0.0000
  32 C32         -0.5074    -3.8998    -3.4632 C.2          1    LIG   0.0000
  33 C33          0.2092    -3.1777    -2.5444 C.2          1    LIG   0.0000
  34 C34          0.0361    -3.3573    -1.1429 C.2          1    LIG   0.0000
  35 C35         -0.0607     0.0331     0.0061 C.2          1    LIG   0.0000
  36 O36         -1.0558    -0.6740    -0.0186 O.2          1    LIG   0.0000
  37 H           -3.4006     3.3933     2.4109 H            1    LIG   0.0000
  38 H           -2.9661     4.1093     1.0090 H            1    LIG   0.0000
  39 H           -3.8193     2.7171     0.9847 H            1    LIG   0.0000
  40 H           -1.1069     2.9535     1.9460 H            1    LIG   0.0000
  41 H           -2.3250     1.2663     3.1036 H            1    LIG   0.0000
  42 H           -2.7437     0.5901     1.6774 H            1    LIG   0.0000
  43 H           -1.1829     0.5829     2.1575 H            1    LIG   0.0000
  44 H           -2.0833     1.6783    -0.4535 H            1    LIG   0.0000
  45 H           -1.2301     3.0705    -0.4292 H            1    LIG   0.0000
  46 H            2.1745     5.9069     0.1396 H            1    LIG   0.0000
  47 H            4.0154     6.8239    -1.6213 H            1    LIG   0.0000
  48 H            6.2265     7.7206    -1.6618 H            1    LIG   0.0000
  49 H            7.7741     7.2030     0.0902 H            1    LIG   0.0000
  50 H            8.2679     6.0837     2.1324 H            1    LIG   0.0000
  51 H            7.6309     4.6688     3.9454 H            1    LIG   0.0000
  52 H            5.4173     3.7464     4.0240 H            1    LIG   0.0000
  53 H            3.8761     4.2623     2.2782 H            1    LIG   0.0000
  54 H            2.5867    -2.0399    -0.0010 H            1    LIG   0.0000
  55 H            0.1909    -3.2092     2.0591 H            1    LIG   0.0000
  56 H           -2.2545    -5.6713    -1.2811 H            1    LIG   0.0000
  57 H           -1.9857    -5.4017    -3.6103 H            1    LIG   0.0000
  58 H           -0.3756    -3.7617    -4.4448 H            1    LIG   0.0000
  59 H            0.8737    -2.5044    -2.8685 H            1    LIG   0.0000
@<TRIPOS>BOND
   1        1        2 1
   2        2        3 1
   3        2        4 1
   4        4        5 1
   5        5        6 1
   6        6        7 2
   7        7        8 1
   8        8        9 3
   9        7       10 1
  10       10       11 2
  11       10       12 am
  12       12       13 1
  13       13       14 ar
  14       14       15 ar
  15       15       16 ar
  16       16       17 ar
  17       17       18 ar
  18       18       19 ar
  19       19       20 ar
  20       20       21 ar
  21       21       22 ar
  22       22       13 ar
  23       22       17 ar
  24        6       23 1
  25       23       24 1
  26       24       25 2
  27       25       26 1
  28       26       27 1
  29       27       28 2
  30       28       29 1
  31       29       30 1
  32       30       31 2
  33       31       32 1
  34       32       33 2
  35       33       34 1
  36       34       26 2
  37       34       29 1
  38       24       35 1
  39       35        5 am
  40       35       36 2
  41        1       37 1
  42        1       38 1
  43        1       39 1
  44        2       40 1
  45        3       41 1
  46        3       42 1
  47        3       43 1
  48        4       44 1
  49        4       45 1
  50       12       46 1
  51       14       47 1
  52       15       48 1
  53       16       49 1
  54       18       50 1
  55       19       51 1
  56       20       52 1
  57       21       53 1
  58       25       54 1
  59       27       55 1
  60       30       56 1
  61       31       57 1
  62       32       58 1
  63       33       59 1

@<TRIPOS>MOLECULE

  59   63
SMALL
USER_CHARGES
@<TRIPOS>ATOM
   1 C1          -3.1111     3.2324     1.4673 C.3          1    LIG   0.0000
   2 C2          -1.8151     2.4382     1.4634 C.3          1    LIG   0.0000
   3 C3          -2.0356     1.1054     2.1600 C.3          1    LIG   0.0000
   4 C4          -1.3751     2.1936     0.0292 C.3          1    LIG   0.0000
   5 N5          -0.1226     1.4260     0.0254 N.am         1    LIG   0.0000
   6 C6           1.1068     2.0766     0.0511 C.2          1    LIG   0.0000
   7 C7           1.3152     3.3815     0.0796 C.2          1    LIG   0.0000
   8 C8           0.2361     4.2577     0.0864 C.1          1    LIG   0.0000
   9 N9          -0.6489     4.9762     0.0920 N.1          1    LIG   0.0000
  10 C10          2.7349     3.9241     0.1051 C.2          1    LIG   0.0000
  11 O11          2.9685     4.9682     0.6484 O.2          1    LIG   0.0000
  12 N12          3.7477     3.2210    -0.4923 N.am         1    LIG   0.0000
  13 C13          5.0537     3.3120     0.0079 C.ar         1    LIG   0.0000
  14 C14          6.1040     3.1589    -0.8898 C.ar         1    LIG   0.0000
  15 C15          7.4183     3.2407    -0.4427 C.ar         1    LIG   0.0000
  16 C16          7.6956     3.4749     0.9002 C.ar         1    LIG   0.0000
  17 C17          6.6381     3.6270     1.7905 C.ar         1    LIG   0.0000
  18 C18          6.9173     3.8603     3.1330 C.ar         1    LIG   0.0000
  19 C19          5.8864     4.0173     4.0533 C.ar         1    LIG   0.0000
  20 C20          4.5626     3.9403     3.6344 C.ar         1    LIG   0.0000
  21 C21          4.2973     3.7060     2.2896 C.ar         1    LIG   0.0000
  22 C22          5.3179     3.5475     1.3559 C.ar         1    LIG   0.0000
  23 S23          2.3434     0.8607     0.0412 S.3          1    LIG   0.0000
  24 C24          1.2797    -0.5054     0.0107 C.2          1    LIG   0.0000
  25 C25          1.6209    -1.7807    -0.0063 C.2          1    LIG   0.0000
  26 C26          0.5960    -2.8046    -0.0325 C.2          1    LIG   0.0000
  27 C27         -0.3789    -2.9686    -1.0379 C.2          1    LIG   0.0000
  28 N28         -1.0897    -4.0019    -0.6591 N.2          1    LIG   0.0000
  29 N29         -0.6600    -4.5091     0.4860 N.pl3        1    LIG   0.0000
  30 C30         -1.0989    -5.5705     1.2406 C.2          1    LIG   0.0000
  31 C31         -0.4998    -5.9344     2.4195 C.2          1    LIG   0.0000
  32 C32          0.6201    -5.1911     2.8813 C.2          1    LIG   0.0000
  33 C33          1.0459    -4.1348     2.1183 C.2          1    LIG   0.0000
  34 C34          0.4034    -3.7774     0.8994 C.2          1    LIG   0.0000
  35 C35         -0.0607     0.0331     0.0061 C.2          1    LIG   0.0000
  36 O36         -1.0558    -0.6740    -0.0186 O.2          1    LIG   0.0000
  37 H           -3.4006     3.3933     2.4109 H            1    LIG   0.0000
  38 H           -2.9661     4.1093     1.0090 H            1    LIG   0.0000
  39 H           -3.8193     2.7171     0.9847 H            1    LIG   0.0000
  40 H           -1.1069     2.9535     1.9460 H            1    LIG   0.0000
  41 H           -2.3250     1.2663     3.1036 H            1    LIG   0.0000
  42 H           -2.7437     0.5901     1.6774 H            1    LIG   0.0000
  43 H           -1.1829     0.5829     2.1575 H            1    LIG   0.0000
  44 H           -2.0833     1.6783    -0.4535 H            1    LIG   0.0000
  45 H           -1.2301     3.0705    -0.4292 H            1    LIG   0.0000
  46 H            3.5551     2.6429    -1.2852 H            1    LIG   0.0000
  47 H            5.9144     2.9900    -1.8570 H            1    LIG   0.0000
  48 H            8.1706     3.1301    -1.0922 H            1    LIG   0.0000
  49 H            8.6411     3.5332     1.2205 H            1    LIG   0.0000
  50 H            7.8676     3.9157     3.4392 H            1    LIG   0.0000
  51 H            6.0971     4.1855     5.0162 H            1    LIG   0.0000
  52 H            3.8146     4.0515     4.2887 H            1    LIG   0.0000
  53 H            3.3466     3.6498     1.9845 H            1    LIG   0.0000
  54 H            2.5867    -2.0399    -0.0010 H            1    LIG   0.0000
  55 H           -0.5013    -2.4157    -1.8621 H            1    LIG   0.0000
  56 H           -1.8850    -6.0976     0.9178 H            1    LIG   0.0000
  57 H           -0.8457    -6.7110     2.9461 H            1    LIG   0.0000
  58 H            1.0824    -5.4309     3.7349 H            1    LIG   0.0000
  59 H            1.8317    -3.5991     2.4275 H            1    LIG   0.0000
@<TRIPOS>BOND
   1        1        2 1
   2        2        3 1
   3        2        4 1
   4        4        5 1
   5        5        6 1
   6        6        7 2
   7        7        8 1
   8        8        9 3
   9        7       10 1
  10       10       11 2
  11       10       12 am
  12       12       13 1
  13       13       14 ar
  14       14       15 ar
  15       15       16 ar
  16       16       17 ar
  17       17       18 ar
  18       18       19 ar
  19       19       20 ar
  20       20       21 ar
  21       21       22 ar
  22       22       13 ar
  23       22       17 ar
  24        6       23 1
  25       23       24 1
  26       24       25 2
  27       25       26 1
  28       26       27 1
  29       27       28 2
  30       28       29 1
  31       29       30 1
  32       30       31 2
  33       31       32 1
  34       32       33 2
  35       33       34 1
  36       34       26 2
  37       34       29 1
  38       24       35 1
  39       35        5 am
  40       35       36 2
  41        1       37 1
  42        1       38 1
  43        1       39 1
  44        2       40 1
  45        3       41 1
  46        3       42 1
  47        3       43 1
  48        4       44 1
  49        4       45 1
  50       12       46 1
  51       14       47 1
  52       15       48 1
  53       16       49 1
  54       18       50 1
  55       19       51 1
  56       20       52 1
  57       21       53 1
  58       25       54 1
  59       27       55 1
  60       30       56 1
  61       31       57 1
  62       32       58 1
  63       33       59 1

@<TRIPOS>MOLECULE

  59   63
SMALL
USER_CHARGES
@<TRIPOS>ATOM
   1 C1          -3.2979     2.7716     1.4886 C.3          1    LIG   0.0000
   2 C2          -1.8151     2.4382     1.4634 C.3          1    LIG   0.0000
   3 C3          -1.5626     1.1885     2.2910 C.3          1    LIG   0.0000
   4 C4          -1.3751     2.1936     0.0292 C.3          1    LIG   0.0000
   5 N5          -0.1226     1.4260     0.0254 N.am         1    LIG   0.0000
   6 C6           1.1068     2.0766     0.0511 C.2          1    LIG   0.0000
   7 C7           1.3152     3.3815     0.0796 C.2          1    LIG   0.0000
   8 C8           2.6135     3.8777     0.1029 C.1          1    LIG   0.0000
   9 N9           3.6782     4.2846     0.1220 N.1          1    LIG   0.0000
  10 C10          0.1352     4.3396     0.0871 C.2          1    LIG   0.0000
  11 O11         -0.2272     4.8371     1.1172 O.2          1    LIG   0.0000
  12 N12         -0.5145     4.6352    -1.0823 N.am         1    LIG   0.0000
  13 C13         -1.1235     5.8864    -1.2486 C.ar         1    LIG   0.0000
  14 C14         -2.1284     6.2422    -0.3563 C.ar         1    LIG   0.0000
  15 C15         -2.7636     7.4732    -0.4793 C.ar         1    LIG   0.0000
  16 C16         -2.4031     8.3575    -1.4909 C.ar         1    LIG   0.0000
  17 C17         -1.3965     7.9926    -2.3785 C.ar         1    LIG   0.0000
  18 C18         -1.0380     8.8777    -3.3897 C.ar         1    LIG   0.0000
  19 C19         -0.0363     8.5480    -4.2964 C.ar         1    LIG   0.0000
  20 C20          0.6159     7.3238    -4.1974 C.ar         1    LIG   0.0000
  21 C21          0.2474     6.4479    -3.1821 C.ar         1    LIG   0.0000
  22 C22         -0.7527     6.7634    -2.2663 C.ar         1    LIG   0.0000
  23 S23          2.3434     0.8607     0.0412 S.3          1    LIG   0.0000
  24 C24          1.2797    -0.5054     0.0107 C.2          1    LIG   0.0000
  25 C25          1.6209    -1.7807    -0.0063 C.2          1    LIG   0.0000
  26 C26          0.5960    -2.8046    -0.0325 C.2          1    LIG   0.0000
  27 C27         -0.0006    -3.4021     1.0968 C.2          1    LIG   0.0000
  28 N28         -0.8601    -4.2644     0.6129 N.2          1    LIG   0.0000
  29 N29         -0.8675    -4.2707    -0.7111 N.pl3        1    LIG   0.0000
  30 C30         -1.5928    -5.0027    -1.6203 C.2          1    LIG   0.0000
  31 C31         -1.4438    -4.8512    -2.9753 C.2          1    LIG   0.0000
  32 C32         -0.5074    -3.8998    -3.4632 C.2          1    LIG   0.0000
  33 C33          0.2092    -3.1777    -2.5444 C.2          1    LIG   0.0000
  34 C34          0.0361    -3.3573    -1.1429 C.2          1    LIG   0.0000
  35 C35         -0.0607     0.0331     0.0061 C.2          1    LIG   0.0000
  36 O36         -1.0558    -0.6740    -0.0186 O.2          1    LIG   0.0000
  37 H           -3.5874     2.9325     2.4322 H            1    LIG   0.0000
  38 H           -3.4640     3.5938     0.9442 H            1    LIG   0.0000
  39 H           -3.8178     2.0078     1.1061 H            1    LIG   0.0000
  40 H           -1.2952     3.2020     1.8459 H            1    LIG   0.0000
  41 H           -1.8521     1.3494     3.2345 H            1    LIG   0.0000
  42 H           -2.0826     0.4247     1.9084 H            1    LIG   0.0000
  43 H           -0.5871     0.9692     2.2744 H            1    LIG   0.0000
  44 H           -2.0833     1.6783    -0.4535 H            1    LIG   0.0000
  45 H           -1.2301     3.0705    -0.4292 H            1    LIG   0.0000
  46 H           -0.5543     3.9581    -1.8171 H            1    LIG   0.0000
  47 H           -2.3945     5.6130     0.3739 H            1    LIG   0.0000
  48 H           -3.4858     7.7249     0.1650 H            1    LIG   0.0000
  49 H           -2.8609     9.2423    -1.5785 H            1    LIG   0.0000
  50 H           -1.5046     9.7589    -3.4655 H            1    LIG   0.0000
  51 H            0.2150     9.1913    -5.0196 H            1    LIG   0.0000
  52 H            1.3371     7.0777    -4.8449 H            1    LIG   0.0000
  53 H            0.7140     5.5665    -3.1077 H            1    LIG   0.0000
  54 H            2.5867    -2.0399    -0.0010 H            1    LIG   0.0000
  55 H            0.1909    -3.2092     2.0591 H            1    LIG   0.0000
  56 H           -2.2545    -5.6713    -1.2811 H            1    LIG   0.0000
  57 H           -1.9857    -5.4017    -3.6103 H            1    LIG   0.0000
  58 H           -0.3756    -3.7617    -4.4448 H            1    LIG   0.0000
  59 H            0.8737    -2.5044    -2.8685 H            1    LIG   0.0000
@<TRIPOS>BOND
   1        1        2 1
   2        2        3 1
   3        2        4 1
   4        4        5 1
   5        5        6 1
   6        6        7 2
   7        7        8 1
   8        8        9 3
   9        7       10 1
  10       10       11 2
  11       10       12 am
  12       12       13 1
  13       13       14 ar
  14       14       15 ar
  15       15       16 ar
  16       16       17 ar
  17       17       18 ar
  18       18       19 ar
  19       19       20 ar
  20       20       21 ar
  21       21       22 ar
  22       22       13 ar
  23       22       17 ar
  24        6       23 1
  25       23       24 1
  26       24       25 2
  27       25       26 1
  28       26       27 1
  29       27       28 2
  30       28       29 1
  31       29       30 1
  32       30       31 2
  33       31       32 1
  34       32       33 2
  35       33       34 1
  36       34       26 2
  37       34       29 1
  38       24       35 1
  39       35        5 am
  40       35       36 2
  41        1       37 1
  42        1       38 1
  43        1       39 1
  44        2       40 1
  45        3       41 1
  46        3       42 1
  47        3       43 1
  48        4       44 1
  49        4       45 1
  50       12       46 1
  51       14       47 1
  52       15       48 1
  53       16       49 1
  54       18       50 1
  55       19       51 1
  56       20       52 1
  57       21       53 1
  58       25       54 1
  59       27       55 1
  60       30       56 1
  61       31       57 1
  62       32       58 1
  63       33       59 1

