@<TRIPOS>MOLECULE
*****
 59 63 0 0 0
SMALL
USER_CHARGES

@<TRIPOS>ATOM
      1 C1         -3.1111    3.2324    1.4673 C.3     1  LIG1        0.0000
      2 C2         -1.8151    2.4382    1.4634 C.3     1  LIG1        0.0000
      3 C3         -2.0356    1.1054    2.1600 C.3     1  LIG1        0.0000
      4 C4         -1.3751    2.1936    0.0292 C.3     1  LIG1        0.0000
      5 N5         -0.1226    1.4260    0.0254 N.am    1  LIG1        0.0000
      6 C6          1.1068    2.0766    0.0511 C.2     1  LIG1        0.0000
      7 C7          1.3152    3.3815    0.0796 C.2     1  LIG1        0.0000
      8 C8          0.2361    4.2577    0.0864 C.1     1  LIG1        0.0000
      9 N9         -0.6489    4.9762    0.0920 N.1     1  LIG1        0.0000
     10 C10         2.7349    3.9241    0.1051 C.2     1  LIG1        0.0000
     11 O11         3.6665    3.1677    0.0992 O.2     1  LIG1        0.0000
     12 N12         2.9509    5.2766    0.1347 N.am    1  LIG1        0.0000
     13 C13         4.2598    5.7768    0.1582 C.3     1  LIG1        0.0000
     14 C14         5.2664    4.9379    0.6220 C.3     1  LIG1        0.0000
     15 C15         6.5817    5.3876    0.6649 C.3     1  LIG1        0.0000
     16 C16         6.9033    6.6748    0.2469 C.3     1  LIG1        0.0000
     17 C17         5.8893    7.5066   -0.2158 C.3     1  LIG1        0.0000
     18 C18         6.2127    8.7936   -0.6327 C.3     1  LIG1        0.0000
     19 C19         5.2261    9.6545   -1.1013 C.3     1  LIG1        0.0000
     20 C20         3.9024    9.2315   -1.1551 C.3     1  LIG1        0.0000
     21 C21         3.5926    7.9427   -0.7349 C.3     1  LIG1        0.0000
     22 C22         4.5687    7.0687   -0.2640 C.3     1  LIG1        0.0000
     23 S23         2.3434    0.8607    0.0412 S.3     1  LIG1        0.0000
     24 C24         1.2797   -0.5054    0.0107 C.2     1  LIG1        0.0000
     25 C25         1.6209   -1.7807   -0.0063 C.2     1  LIG1        0.0000
     26 C26         0.5960   -2.8046   -0.0325 C.2     1  LIG1        0.0000
     27 C27        -0.4032   -2.9952    0.9439 C.2     1  LIG1        0.0000
     28 N28        -1.1005   -4.0214    0.5233 N.2     1  LIG1        0.0000
     29 N29        -0.6424   -4.4983   -0.6239 N.pl3   1  LIG1        0.0000
     30 C30        -1.0551   -5.5462   -1.4112 C.2     1  LIG1        0.0000
     31 C31        -0.4281   -5.8778   -2.5851 C.2     1  LIG1        0.0000
     32 C32         0.6895   -5.1094   -3.0100 C.2     1  LIG1        0.0000
     33 C33         1.0899   -4.0677   -2.2140 C.2     1  LIG1        0.0000
     34 C34         0.4220   -3.7473   -0.9985 C.2     1  LIG1        0.0000
     35 C35        -0.0607    0.0331    0.0061 C.2     1  LIG1        0.0000
     36 O36        -1.0558   -0.6740   -0.0186 O.2     1  LIG1        0.0000
     37 H          -3.4006    3.3933    2.4109 H       1  LIG1        0.0000
     38 H          -2.9661    4.1093    1.0090 H       1  LIG1        0.0000
     39 H          -3.8193    2.7171    0.9847 H       1  LIG1        0.0000
     40 H          -1.1069    2.9535    1.9460 H       1  LIG1        0.0000
     41 H          -2.3250    1.2663    3.1036 H       1  LIG1        0.0000
     42 H          -2.7437    0.5901    1.6774 H       1  LIG1        0.0000
     43 H          -1.1829    0.5829    2.1575 H       1  LIG1        0.0000
     44 H          -2.0833    1.6783   -0.4535 H       1  LIG1        0.0000
     45 H          -1.2301    3.0705   -0.4292 H       1  LIG1        0.0000
     46 H           2.1745    5.9069    0.1396 H       1  LIG1        0.0000
     47 H           5.0448    4.0109    0.9249 H       1  LIG1        0.0000
     48 H           7.3025    4.7804    0.9992 H       1  LIG1        0.0000
     49 H           7.8494    6.9971    0.2785 H       1  LIG1        0.0000
     50 H           7.1630    9.1025   -0.5951 H       1  LIG1        0.0000
     51 H           5.4685   10.5777   -1.3995 H       1  LIG1        0.0000
     52 H           3.1860    9.8435   -1.4902 H       1  LIG1        0.0000
     53 H           2.6418    7.6349   -0.7719 H       1  LIG1        0.0000
     54 H           2.5867   -2.0399   -0.0010 H       1  LIG1        0.0000
     55 H          -0.5482   -2.4622    1.7775 H       1  LIG1        0.0000
     56 H          -1.8426   -6.0877   -1.1170 H       1  LIG1        0.0000
     57 H          -0.7524   -6.6485   -3.1337 H       1  LIG1        0.0000
     58 H           1.1681   -5.3218   -3.8620 H       1  LIG1        0.0000
     59 H           1.8751   -3.5163   -2.4957 H       1  LIG1        0.0000
@<TRIPOS>BOND
     1     1     2    1
     2     2     3    1
     3     2     4    1
     4     4     5    1
     5     5     6    1
     6     6     7    2
     7     7     8    1
     8     8     9    3
     9     7    10    1
    10    10    11    2
    11    10    12   am
    12    12    13    1
    13    13    14   ar
    14    14    15   ar
    15    15    16   ar
    16    16    17   ar
    17    17    18   ar
    18    18    19   ar
    19    19    20   ar
    20    20    21   ar
    21    21    22   ar
    22    22    13   ar
    23    22    17   ar
    24     6    23    1
    25    23    24    1
    26    24    25    2
    27    25    26    1
    28    26    27    1
    29    27    28    2
    30    28    29    1
    31    29    30    1
    32    30    31    2
    33    31    32    1
    34    32    33    2
    35    33    34    1
    36    34    26    2
    37    34    29    1
    38    24    35    1
    39    35     5   am
    40    35    36    2
    41     1    37    1
    42     1    38    1
    43     1    39    1
    44     2    40    1
    45     3    41    1
    46     3    42    1
    47     3    43    1
    48     4    44    1
    49     4    45    1
    50    12    46    1
    51    14    47    1
    52    15    48    1
    53    16    49    1
    54    18    50    1
    55    19    51    1
    56    20    52    1
    57    21    53    1
    58    25    54    1
    59    27    55    1
    60    30    56    1
    61    31    57    1
    62    32    58    1
    63    33    59    1
