@<TRIPOS>MOLECULE
*****
 59 63 0 0 0
SMALL
USER_CHARGES

@<TRIPOS>ATOM
      1 C1         -3.0952    3.2727   -1.3985 C.3     1  LIG1        0.0000
      2 C2         -1.7992    2.4785   -1.4024 C.3     1  LIG1        0.0000
      3 C3         -0.7147    3.2818   -2.1017 C.3     1  LIG1        0.0000
      4 C4         -1.3751    2.1936    0.0292 C.3     1  LIG1        0.0000
      5 N5         -0.1226    1.4260    0.0254 N.am    1  LIG1        0.0000
      6 C6          1.1068    2.0766    0.0511 C.2     1  LIG1        0.0000
      7 C7          1.3152    3.3815    0.0796 C.2     1  LIG1        0.0000
      8 C8          0.2361    4.2577    0.0864 C.1     1  LIG1        0.0000
      9 N9         -0.6489    4.9762    0.0920 N.1     1  LIG1        0.0000
     10 C10         2.7349    3.9241    0.1051 C.2     1  LIG1        0.0000
     11 O11         3.6665    3.1677    0.0992 O.2     1  LIG1        0.0000
     12 N12         2.9509    5.2766    0.1347 N.am    1  LIG1        0.0000
     13 C13         4.2598    5.7768    0.1582 C.3     1  LIG1        0.0000
     14 C14         5.2760    4.9569   -0.3188 C.3     1  LIG1        0.0000
     15 C15         6.5917    5.4074   -0.3166 C.3     1  LIG1        0.0000
     16 C16         6.9043    6.6762    0.1604 C.3     1  LIG1        0.0000
     17 C17         5.8807    7.4893    0.6353 C.3     1  LIG1        0.0000
     18 C18         6.1953    8.7572    1.1125 C.3     1  LIG1        0.0000
     19 C19         5.1990    9.5988    1.5957 C.3     1  LIG1        0.0000
     20 C20         3.8748    9.1745    1.6056 C.3     1  LIG1        0.0000
     21 C21         3.5739    7.9043    1.1261 C.3     1  LIG1        0.0000
     22 C22         4.5595    7.0504    0.6385 C.3     1  LIG1        0.0000
     23 S23         2.3434    0.8607    0.0412 S.3     1  LIG1        0.0000
     24 C24         1.2797   -0.5054    0.0107 C.2     1  LIG1        0.0000
     25 C25         1.6209   -1.7807   -0.0063 C.2     1  LIG1        0.0000
     26 C26         0.5960   -2.8046   -0.0325 C.2     1  LIG1        0.0000
     27 C27         0.4299   -3.7782   -1.0389 C.2     1  LIG1        0.0000
     28 N28        -0.6071   -4.4848   -0.6627 N.2     1  LIG1        0.0000
     29 N29        -1.1130   -4.0556    0.4832 N.pl3   1  LIG1        0.0000
     30 C30        -2.1811   -4.4871    1.2326 C.2     1  LIG1        0.0000
     31 C31        -2.5422   -3.8900    2.4133 C.2     1  LIG1        0.0000
     32 C32        -1.7843   -2.7846    2.8863 C.2     1  LIG1        0.0000
     33 C33        -0.7224   -2.3652    2.1278 C.2     1  LIG1        0.0000
     34 C34        -0.3712   -3.0022    0.9042 C.2     1  LIG1        0.0000
     35 C35        -0.0607    0.0331    0.0061 C.2     1  LIG1        0.0000
     36 O36        -1.0558   -0.6740   -0.0186 O.2     1  LIG1        0.0000
     37 H          -3.3741    3.4601   -2.3403 H       1  LIG1        0.0000
     38 H          -3.8086    2.7441   -0.9384 H       1  LIG1        0.0000
     39 H          -2.9554    4.1363   -0.9141 H       1  LIG1        0.0000
     40 H          -1.9389    1.6148   -1.8868 H       1  LIG1        0.0000
     41 H          -0.9937    3.4692   -3.0436 H       1  LIG1        0.0000
     42 H          -0.5750    4.1455   -1.6173 H       1  LIG1        0.0000
     43 H           0.1379    2.7593   -2.1043 H       1  LIG1        0.0000
     44 H          -1.2354    3.0572    0.5135 H       1  LIG1        0.0000
     45 H          -2.0886    1.6651    0.4892 H       1  LIG1        0.0000
     46 H           2.1745    5.9069    0.1396 H       1  LIG1        0.0000
     47 H           5.0609    4.0432   -0.6635 H       1  LIG1        0.0000
     48 H           7.3194    4.8141   -0.6609 H       1  LIG1        0.0000
     49 H           7.8508    6.9989    0.1618 H       1  LIG1        0.0000
     50 H           7.1463    9.0665    1.1082 H       1  LIG1        0.0000
     51 H           5.4350   10.5090    1.9361 H       1  LIG1        0.0000
     52 H           3.1515    9.7723    1.9514 H       1  LIG1        0.0000
     53 H           2.6228    7.5956    1.1317 H       1  LIG1        0.0000
     54 H           2.5867   -2.0399   -0.0010 H       1  LIG1        0.0000
     55 H           0.9841   -3.9025   -1.8620 H       1  LIG1        0.0000
     56 H          -2.7153   -5.2662    0.9046 H       1  LIG1        0.0000
     57 H          -3.3269   -4.2272    2.9335 H       1  LIG1        0.0000
     58 H          -2.0182   -2.3277    3.7445 H       1  LIG1        0.0000
     59 H          -0.1778   -1.5881    2.4436 H       1  LIG1        0.0000
@<TRIPOS>BOND
     1     1     2    1
     2     2     3    1
     3     2     4    1
     4     4     5    1
     5     5     6    1
     6     6     7    2
     7     7     8    1
     8     8     9    3
     9     7    10    1
    10    10    11    2
    11    10    12   am
    12    12    13    1
    13    13    14   ar
    14    14    15   ar
    15    15    16   ar
    16    16    17   ar
    17    17    18   ar
    18    18    19   ar
    19    19    20   ar
    20    20    21   ar
    21    21    22   ar
    22    22    13   ar
    23    22    17   ar
    24     6    23    1
    25    23    24    1
    26    24    25    2
    27    25    26    1
    28    26    27    1
    29    27    28    2
    30    28    29    1
    31    29    30    1
    32    30    31    2
    33    31    32    1
    34    32    33    2
    35    33    34    1
    36    34    26    2
    37    34    29    1
    38    24    35    1
    39    35     5   am
    40    35    36    2
    41     1    37    1
    42     1    38    1
    43     1    39    1
    44     2    40    1
    45     3    41    1
    46     3    42    1
    47     3    43    1
    48     4    44    1
    49     4    45    1
    50    12    46    1
    51    14    47    1
    52    15    48    1
    53    16    49    1
    54    18    50    1
    55    19    51    1
    56    20    52    1
    57    21    53    1
    58    25    54    1
    59    27    55    1
    60    30    56    1
    61    31    57    1
    62    32    58    1
    63    33    59    1
