@<TRIPOS>MOLECULE
*****
 59 63 0 0 0
SMALL
USER_CHARGES

@<TRIPOS>ATOM
      1 C1         -3.1111    3.2324    1.4673 C.3     1  LIG1        0.0000
      2 C2         -1.8151    2.4382    1.4634 C.3     1  LIG1        0.0000
      3 C3         -2.0356    1.1054    2.1600 C.3     1  LIG1        0.0000
      4 C4         -1.3751    2.1936    0.0292 C.3     1  LIG1        0.0000
      5 N5         -0.1226    1.4260    0.0254 N.am    1  LIG1        0.0000
      6 C6          1.1068    2.0766    0.0511 C.2     1  LIG1        0.0000
      7 C7          1.3152    3.3815    0.0796 C.2     1  LIG1        0.0000
      8 C8          0.2361    4.2577    0.0864 C.1     1  LIG1        0.0000
      9 N9         -0.6489    4.9762    0.0920 N.1     1  LIG1        0.0000
     10 C10         2.7349    3.9241    0.1051 C.2     1  LIG1        0.0000
     11 O11         2.9685    4.9682    0.6484 O.2     1  LIG1        0.0000
     12 N12         3.7477    3.2210   -0.4923 N.am    1  LIG1        0.0000
     13 C13         5.0537    3.3120    0.0079 C.3     1  LIG1        0.0000
     14 C14         6.1040    3.1589   -0.8898 C.3     1  LIG1        0.0000
     15 C15         7.4183    3.2407   -0.4427 C.3     1  LIG1        0.0000
     16 C16         7.6956    3.4749    0.9002 C.3     1  LIG1        0.0000
     17 C17         6.6381    3.6270    1.7905 C.3     1  LIG1        0.0000
     18 C18         6.9173    3.8603    3.1330 C.3     1  LIG1        0.0000
     19 C19         5.8864    4.0173    4.0533 C.3     1  LIG1        0.0000
     20 C20         4.5626    3.9403    3.6344 C.3     1  LIG1        0.0000
     21 C21         4.2973    3.7060    2.2896 C.3     1  LIG1        0.0000
     22 C22         5.3179    3.5475    1.3559 C.3     1  LIG1        0.0000
     23 S23         2.3434    0.8607    0.0412 S.3     1  LIG1        0.0000
     24 C24         1.2797   -0.5054    0.0107 C.2     1  LIG1        0.0000
     25 C25         1.6209   -1.7807   -0.0063 C.2     1  LIG1        0.0000
     26 C26         0.5960   -2.8046   -0.0325 C.2     1  LIG1        0.0000
     27 C27        -0.3789   -2.9686   -1.0379 C.2     1  LIG1        0.0000
     28 N28        -1.0897   -4.0019   -0.6591 N.2     1  LIG1        0.0000
     29 N29        -0.6600   -4.5091    0.4860 N.pl3   1  LIG1        0.0000
     30 C30        -1.0989   -5.5705    1.2406 C.2     1  LIG1        0.0000
     31 C31        -0.4998   -5.9344    2.4195 C.2     1  LIG1        0.0000
     32 C32         0.6201   -5.1911    2.8813 C.2     1  LIG1        0.0000
     33 C33         1.0459   -4.1348    2.1183 C.2     1  LIG1        0.0000
     34 C34         0.4034   -3.7774    0.8994 C.2     1  LIG1        0.0000
     35 C35        -0.0607    0.0331    0.0061 C.2     1  LIG1        0.0000
     36 O36        -1.0558   -0.6740   -0.0186 O.2     1  LIG1        0.0000
     37 H          -3.4006    3.3933    2.4109 H       1  LIG1        0.0000
     38 H          -2.9661    4.1093    1.0090 H       1  LIG1        0.0000
     39 H          -3.8193    2.7171    0.9847 H       1  LIG1        0.0000
     40 H          -1.1069    2.9535    1.9460 H       1  LIG1        0.0000
     41 H          -2.3250    1.2663    3.1036 H       1  LIG1        0.0000
     42 H          -2.7437    0.5901    1.6774 H       1  LIG1        0.0000
     43 H          -1.1829    0.5829    2.1575 H       1  LIG1        0.0000
     44 H          -2.0833    1.6783   -0.4535 H       1  LIG1        0.0000
     45 H          -1.2301    3.0705   -0.4292 H       1  LIG1        0.0000
     46 H           3.5551    2.6429   -1.2852 H       1  LIG1        0.0000
     47 H           5.9144    2.9900   -1.8570 H       1  LIG1        0.0000
     48 H           8.1706    3.1301   -1.0922 H       1  LIG1        0.0000
     49 H           8.6411    3.5332    1.2205 H       1  LIG1        0.0000
     50 H           7.8676    3.9157    3.4392 H       1  LIG1        0.0000
     51 H           6.0971    4.1855    5.0162 H       1  LIG1        0.0000
     52 H           3.8146    4.0515    4.2887 H       1  LIG1        0.0000
     53 H           3.3466    3.6498    1.9845 H       1  LIG1        0.0000
     54 H           2.5867   -2.0399   -0.0010 H       1  LIG1        0.0000
     55 H          -0.5013   -2.4157   -1.8621 H       1  LIG1        0.0000
     56 H          -1.8850   -6.0976    0.9178 H       1  LIG1        0.0000
     57 H          -0.8457   -6.7110    2.9461 H       1  LIG1        0.0000
     58 H           1.0824   -5.4309    3.7349 H       1  LIG1        0.0000
     59 H           1.8317   -3.5991    2.4275 H       1  LIG1        0.0000
@<TRIPOS>BOND
     1     1     2    1
     2     2     3    1
     3     2     4    1
     4     4     5    1
     5     5     6    1
     6     6     7    2
     7     7     8    1
     8     8     9    3
     9     7    10    1
    10    10    11    2
    11    10    12   am
    12    12    13    1
    13    13    14   ar
    14    14    15   ar
    15    15    16   ar
    16    16    17   ar
    17    17    18   ar
    18    18    19   ar
    19    19    20   ar
    20    20    21   ar
    21    21    22   ar
    22    22    13   ar
    23    22    17   ar
    24     6    23    1
    25    23    24    1
    26    24    25    2
    27    25    26    1
    28    26    27    1
    29    27    28    2
    30    28    29    1
    31    29    30    1
    32    30    31    2
    33    31    32    1
    34    32    33    2
    35    33    34    1
    36    34    26    2
    37    34    29    1
    38    24    35    1
    39    35     5   am
    40    35    36    2
    41     1    37    1
    42     1    38    1
    43     1    39    1
    44     2    40    1
    45     3    41    1
    46     3    42    1
    47     3    43    1
    48     4    44    1
    49     4    45    1
    50    12    46    1
    51    14    47    1
    52    15    48    1
    53    16    49    1
    54    18    50    1
    55    19    51    1
    56    20    52    1
    57    21    53    1
    58    25    54    1
    59    27    55    1
    60    30    56    1
    61    31    57    1
    62    32    58    1
    63    33    59    1
