@<TRIPOS>MOLECULE
*****
 59 63 0 0 0
SMALL
USER_CHARGES

@<TRIPOS>ATOM
      1 C1         -3.1111    3.2324    1.4673 C.3     1  LIG1        0.0000
      2 C2         -1.8151    2.4382    1.4634 C.3     1  LIG1        0.0000
      3 C3         -2.0356    1.1054    2.1600 C.3     1  LIG1        0.0000
      4 C4         -1.3751    2.1936    0.0292 C.3     1  LIG1        0.0000
      5 N5         -0.1226    1.4260    0.0254 N.am    1  LIG1        0.0000
      6 C6          1.1068    2.0766    0.0511 C.2     1  LIG1        0.0000
      7 C7          1.3152    3.3815    0.0796 C.2     1  LIG1        0.0000
      8 C8          0.2361    4.2577    0.0864 C.1     1  LIG1        0.0000
      9 N9         -0.6489    4.9762    0.0920 N.1     1  LIG1        0.0000
     10 C10         2.7349    3.9241    0.1051 C.2     1  LIG1        0.0000
     11 O11         3.6665    3.1677    0.0992 O.2     1  LIG1        0.0000
     12 N12         2.9509    5.2766    0.1347 N.am    1  LIG1        0.0000
     13 C13         4.2598    5.7768    0.1582 C.3     1  LIG1        0.0000
     14 C14         4.6567    6.6041   -0.8861 C.3     1  LIG1        0.0000
     15 C15         5.9456    7.1258   -0.9086 C.3     1  LIG1        0.0000
     16 C16         6.8474    6.8275    0.1077 C.3     1  LIG1        0.0000
     17 C17         6.4410    5.9992    1.1483 C.3     1  LIG1        0.0000
     18 C18         7.3443    5.7014    2.1631 C.3     1  LIG1        0.0000
     19 C19         6.9746    4.8766    3.2201 C.3     1  LIG1        0.0000
     20 C20         5.6923    4.3407    3.2683 C.3     1  LIG1        0.0000
     21 C21         4.7991    4.6459    2.2471 C.3     1  LIG1        0.0000
     22 C22         5.1536    5.4704    1.1827 C.3     1  LIG1        0.0000
     23 S23         2.3434    0.8607    0.0412 S.3     1  LIG1        0.0000
     24 C24         1.2797   -0.5054    0.0107 C.2     1  LIG1        0.0000
     25 C25         1.6209   -1.7807   -0.0063 C.2     1  LIG1        0.0000
     26 C26         0.5960   -2.8046   -0.0325 C.2     1  LIG1        0.0000
     27 C27        -0.0006   -3.4021    1.0968 C.2     1  LIG1        0.0000
     28 N28        -0.8601   -4.2644    0.6129 N.2     1  LIG1        0.0000
     29 N29        -0.8675   -4.2707   -0.7111 N.pl3   1  LIG1        0.0000
     30 C30        -1.5928   -5.0027   -1.6203 C.2     1  LIG1        0.0000
     31 C31        -1.4438   -4.8512   -2.9753 C.2     1  LIG1        0.0000
     32 C32        -0.5074   -3.8998   -3.4632 C.2     1  LIG1        0.0000
     33 C33         0.2092   -3.1777   -2.5444 C.2     1  LIG1        0.0000
     34 C34         0.0361   -3.3573   -1.1429 C.2     1  LIG1        0.0000
     35 C35        -0.0607    0.0331    0.0061 C.2     1  LIG1        0.0000
     36 O36        -1.0558   -0.6740   -0.0186 O.2     1  LIG1        0.0000
     37 H          -3.4006    3.3933    2.4109 H       1  LIG1        0.0000
     38 H          -2.9661    4.1093    1.0090 H       1  LIG1        0.0000
     39 H          -3.8193    2.7171    0.9847 H       1  LIG1        0.0000
     40 H          -1.1069    2.9535    1.9460 H       1  LIG1        0.0000
     41 H          -2.3250    1.2663    3.1036 H       1  LIG1        0.0000
     42 H          -2.7437    0.5901    1.6774 H       1  LIG1        0.0000
     43 H          -1.1829    0.5829    2.1575 H       1  LIG1        0.0000
     44 H          -2.0833    1.6783   -0.4535 H       1  LIG1        0.0000
     45 H          -1.2301    3.0705   -0.4292 H       1  LIG1        0.0000
     46 H           2.1745    5.9069    0.1396 H       1  LIG1        0.0000
     47 H           4.0154    6.8239   -1.6213 H       1  LIG1        0.0000
     48 H           6.2265    7.7206   -1.6618 H       1  LIG1        0.0000
     49 H           7.7741    7.2030    0.0902 H       1  LIG1        0.0000
     50 H           8.2679    6.0837    2.1324 H       1  LIG1        0.0000
     51 H           7.6309    4.6688    3.9454 H       1  LIG1        0.0000
     52 H           5.4173    3.7464    4.0240 H       1  LIG1        0.0000
     53 H           3.8761    4.2623    2.2782 H       1  LIG1        0.0000
     54 H           2.5867   -2.0399   -0.0010 H       1  LIG1        0.0000
     55 H           0.1909   -3.2092    2.0591 H       1  LIG1        0.0000
     56 H          -2.2545   -5.6713   -1.2811 H       1  LIG1        0.0000
     57 H          -1.9857   -5.4017   -3.6103 H       1  LIG1        0.0000
     58 H          -0.3756   -3.7617   -4.4448 H       1  LIG1        0.0000
     59 H           0.8737   -2.5044   -2.8685 H       1  LIG1        0.0000
@<TRIPOS>BOND
     1     1     2    1
     2     2     3    1
     3     2     4    1
     4     4     5    1
     5     5     6    1
     6     6     7    2
     7     7     8    1
     8     8     9    3
     9     7    10    1
    10    10    11    2
    11    10    12   am
    12    12    13    1
    13    13    14   ar
    14    14    15   ar
    15    15    16   ar
    16    16    17   ar
    17    17    18   ar
    18    18    19   ar
    19    19    20   ar
    20    20    21   ar
    21    21    22   ar
    22    22    13   ar
    23    22    17   ar
    24     6    23    1
    25    23    24    1
    26    24    25    2
    27    25    26    1
    28    26    27    1
    29    27    28    2
    30    28    29    1
    31    29    30    1
    32    30    31    2
    33    31    32    1
    34    32    33    2
    35    33    34    1
    36    34    26    2
    37    34    29    1
    38    24    35    1
    39    35     5   am
    40    35    36    2
    41     1    37    1
    42     1    38    1
    43     1    39    1
    44     2    40    1
    45     3    41    1
    46     3    42    1
    47     3    43    1
    48     4    44    1
    49     4    45    1
    50    12    46    1
    51    14    47    1
    52    15    48    1
    53    16    49    1
    54    18    50    1
    55    19    51    1
    56    20    52    1
    57    21    53    1
    58    25    54    1
    59    27    55    1
    60    30    56    1
    61    31    57    1
    62    32    58    1
    63    33    59    1
