@<TRIPOS>MOLECULE
*****
 59 63 0 0 0
SMALL
USER_CHARGES

@<TRIPOS>ATOM
      1 C1         -3.1111    3.2324    1.4673 C.3     1  LIG1        0.0000
      2 C2         -1.8151    2.4382    1.4634 C.3     1  LIG1        0.0000
      3 C3         -2.0356    1.1054    2.1600 C.3     1  LIG1        0.0000
      4 C4         -1.3751    2.1936    0.0292 C.3     1  LIG1        0.0000
      5 N5         -0.1226    1.4260    0.0254 N.am    1  LIG1        0.0000
      6 C6          1.1068    2.0766    0.0511 C.2     1  LIG1        0.0000
      7 C7          1.3152    3.3815    0.0796 C.2     1  LIG1        0.0000
      8 C8          2.6135    3.8777    0.1029 C.1     1  LIG1        0.0000
      9 N9          3.6782    4.2846    0.1220 N.1     1  LIG1        0.0000
     10 C10         0.1352    4.3396    0.0871 C.2     1  LIG1        0.0000
     11 O11        -0.2272    4.8371    1.1172 O.2     1  LIG1        0.0000
     12 N12        -0.5145    4.6352   -1.0823 N.am    1  LIG1        0.0000
     13 C13        -1.6025    5.5185   -1.0754 C.3     1  LIG1        0.0000
     14 C14        -2.8299    5.0391   -1.5182 C.3     1  LIG1        0.0000
     15 C15        -3.9401    5.8766   -1.5308 C.3     1  LIG1        0.0000
     16 C16        -3.8357    7.1962   -1.1031 C.3     1  LIG1        0.0000
     17 C17        -2.6036    7.6666   -0.6616 C.3     1  LIG1        0.0000
     18 C18        -2.5010    8.9865   -0.2351 C.3     1  LIG1        0.0000
     19 C19        -1.2857    9.4929    0.2130 C.3     1  LIG1        0.0000
     20 C20        -0.1590    8.6782    0.2363 C.3     1  LIG1        0.0000
     21 C21        -0.2751    7.3607   -0.1933 C.3     1  LIG1        0.0000
     22 C22        -1.4846    6.8386   -0.6439 C.3     1  LIG1        0.0000
     23 S23         2.3434    0.8607    0.0412 S.3     1  LIG1        0.0000
     24 C24         1.2797   -0.5054    0.0107 C.2     1  LIG1        0.0000
     25 C25         1.6209   -1.7807   -0.0063 C.2     1  LIG1        0.0000
     26 C26         0.5960   -2.8046   -0.0325 C.2     1  LIG1        0.0000
     27 C27         0.4299   -3.7782   -1.0389 C.2     1  LIG1        0.0000
     28 N28        -0.6071   -4.4848   -0.6627 N.2     1  LIG1        0.0000
     29 N29        -1.1130   -4.0556    0.4832 N.pl3   1  LIG1        0.0000
     30 C30        -2.1811   -4.4871    1.2326 C.2     1  LIG1        0.0000
     31 C31        -2.5422   -3.8900    2.4133 C.2     1  LIG1        0.0000
     32 C32        -1.7843   -2.7846    2.8863 C.2     1  LIG1        0.0000
     33 C33        -0.7224   -2.3652    2.1278 C.2     1  LIG1        0.0000
     34 C34        -0.3712   -3.0022    0.9042 C.2     1  LIG1        0.0000
     35 C35        -0.0607    0.0331    0.0061 C.2     1  LIG1        0.0000
     36 O36        -1.0558   -0.6740   -0.0186 O.2     1  LIG1        0.0000
     37 H          -3.4006    3.3933    2.4109 H       1  LIG1        0.0000
     38 H          -2.9661    4.1093    1.0090 H       1  LIG1        0.0000
     39 H          -3.8193    2.7171    0.9847 H       1  LIG1        0.0000
     40 H          -1.1069    2.9535    1.9460 H       1  LIG1        0.0000
     41 H          -2.3250    1.2663    3.1036 H       1  LIG1        0.0000
     42 H          -2.7437    0.5901    1.6774 H       1  LIG1        0.0000
     43 H          -1.1829    0.5829    2.1575 H       1  LIG1        0.0000
     44 H          -2.0833    1.6783   -0.4535 H       1  LIG1        0.0000
     45 H          -1.2301    3.0705   -0.4292 H       1  LIG1        0.0000
     46 H          -0.2125    4.2206   -1.9407 H       1  LIG1        0.0000
     47 H          -2.9145    4.0920   -1.8278 H       1  LIG1        0.0000
     48 H          -4.8210    5.5272   -1.8500 H       1  LIG1        0.0000
     49 H          -4.6346    7.7976   -1.1129 H       1  LIG1        0.0000
     50 H          -3.3082    9.5765   -0.2508 H       1  LIG1        0.0000
     51 H          -1.2220   10.4430    0.5183 H       1  LIG1        0.0000
     52 H           0.7192    9.0334    0.5564 H       1  LIG1        0.0000
     53 H           0.5329    6.7717   -0.1781 H       1  LIG1        0.0000
     54 H           2.5867   -2.0399   -0.0010 H       1  LIG1        0.0000
     55 H           0.9841   -3.9025   -1.8620 H       1  LIG1        0.0000
     56 H          -2.7153   -5.2662    0.9046 H       1  LIG1        0.0000
     57 H          -3.3269   -4.2272    2.9335 H       1  LIG1        0.0000
     58 H          -2.0182   -2.3277    3.7445 H       1  LIG1        0.0000
     59 H          -0.1778   -1.5881    2.4436 H       1  LIG1        0.0000
@<TRIPOS>BOND
     1     1     2    1
     2     2     3    1
     3     2     4    1
     4     4     5    1
     5     5     6    1
     6     6     7    2
     7     7     8    1
     8     8     9    3
     9     7    10    1
    10    10    11    2
    11    10    12   am
    12    12    13    1
    13    13    14   ar
    14    14    15   ar
    15    15    16   ar
    16    16    17   ar
    17    17    18   ar
    18    18    19   ar
    19    19    20   ar
    20    20    21   ar
    21    21    22   ar
    22    22    13   ar
    23    22    17   ar
    24     6    23    1
    25    23    24    1
    26    24    25    2
    27    25    26    1
    28    26    27    1
    29    27    28    2
    30    28    29    1
    31    29    30    1
    32    30    31    2
    33    31    32    1
    34    32    33    2
    35    33    34    1
    36    34    26    2
    37    34    29    1
    38    24    35    1
    39    35     5   am
    40    35    36    2
    41     1    37    1
    42     1    38    1
    43     1    39    1
    44     2    40    1
    45     3    41    1
    46     3    42    1
    47     3    43    1
    48     4    44    1
    49     4    45    1
    50    12    46    1
    51    14    47    1
    52    15    48    1
    53    16    49    1
    54    18    50    1
    55    19    51    1
    56    20    52    1
    57    21    53    1
    58    25    54    1
    59    27    55    1
    60    30    56    1
    61    31    57    1
    62    32    58    1
    63    33    59    1
