@<TRIPOS>MOLECULE
*****
 59 63 0 0 0
SMALL
USER_CHARGES

@<TRIPOS>ATOM
      1 C1         -2.7694    3.6484   -1.4202 C.3     1  LIG1        0.0000
      2 C2         -1.7992    2.4785   -1.4024 C.3     1  LIG1        0.0000
      3 C3         -0.5747    2.8231   -2.2345 C.3     1  LIG1        0.0000
      4 C4         -1.3751    2.1936    0.0292 C.3     1  LIG1        0.0000
      5 N5         -0.1226    1.4260    0.0254 N.am    1  LIG1        0.0000
      6 C6          1.1068    2.0766    0.0511 C.2     1  LIG1        0.0000
      7 C7          1.3152    3.3815    0.0796 C.2     1  LIG1        0.0000
      8 C8          0.2361    4.2577    0.0864 C.1     1  LIG1        0.0000
      9 N9         -0.6489    4.9762    0.0920 N.1     1  LIG1        0.0000
     10 C10         2.7349    3.9241    0.1051 C.2     1  LIG1        0.0000
     11 O11         3.2412    4.3275   -0.9053 O.2     1  LIG1        0.0000
     12 N12         3.4364    3.9525    1.2815 N.am    1  LIG1        0.0000
     13 C13         4.8325    3.8316    1.2679 C.3     1  LIG1        0.0000
     14 C14         5.5852    4.9945    1.3840 C.3     1  LIG1        0.0000
     15 C15         6.9743    4.9275    1.3757 C.3     1  LIG1        0.0000
     16 C16         7.6228    3.7031    1.2518 C.3     1  LIG1        0.0000
     17 C17         6.8611    2.5452    1.1365 C.3     1  LIG1        0.0000
     18 C18         7.5113    1.3219    1.0118 C.3     1  LIG1        0.0000
     19 C19         6.7837    0.1426    0.8940 C.3     1  LIG1        0.0000
     20 C20         5.3936    0.1797    0.8991 C.3     1  LIG1        0.0000
     21 C21         4.7560    1.4092    1.0239 C.3     1  LIG1        0.0000
     22 C22         5.4700    2.5985    1.1434 C.3     1  LIG1        0.0000
     23 S23         2.3434    0.8607    0.0412 S.3     1  LIG1        0.0000
     24 C24         1.2797   -0.5054    0.0107 C.2     1  LIG1        0.0000
     25 C25         1.6209   -1.7807   -0.0063 C.2     1  LIG1        0.0000
     26 C26         0.5960   -2.8046   -0.0325 C.2     1  LIG1        0.0000
     27 C27         0.4057   -3.8048    0.9430 C.2     1  LIG1        0.0000
     28 N28        -0.6179   -4.5043    0.5197 N.2     1  LIG1        0.0000
     29 N29        -1.0953   -4.0448   -0.6266 N.pl3   1  LIG1        0.0000
     30 C30        -2.1373   -4.4629   -1.4192 C.2     1  LIG1        0.0000
     31 C31        -2.4705   -3.8333   -2.5912 C.2     1  LIG1        0.0000
     32 C32        -1.7150   -2.7029   -3.0050 C.2     1  LIG1        0.0000
     33 C33        -0.6783   -2.2981   -2.2046 C.2     1  LIG1        0.0000
     34 C34        -0.3527   -2.9720   -0.9937 C.2     1  LIG1        0.0000
     35 C35        -0.0607    0.0331    0.0061 C.2     1  LIG1        0.0000
     36 O36        -1.0558   -0.6740   -0.0186 O.2     1  LIG1        0.0000
     37 H          -3.0484    3.8358   -2.3621 H       1  LIG1        0.0000
     38 H          -3.5750    3.4216   -0.8728 H       1  LIG1        0.0000
     39 H          -2.3232    4.4573   -1.0375 H       1  LIG1        0.0000
     40 H          -2.2453    1.6695   -1.7852 H       1  LIG1        0.0000
     41 H          -0.8536    3.0105   -3.1763 H       1  LIG1        0.0000
     42 H          -0.1285    3.6320   -1.8517 H       1  LIG1        0.0000
     43 H           0.0637    2.0534   -2.2228 H       1  LIG1        0.0000
     44 H          -1.2354    3.0572    0.5135 H       1  LIG1        0.0000
     45 H          -2.0886    1.6651    0.4892 H       1  LIG1        0.0000
     46 H           2.9522    4.0594    2.1499 H       1  LIG1        0.0000
     47 H           5.1279    5.8793    1.4733 H       1  LIG1        0.0000
     48 H           7.5116    5.7667    1.4597 H       1  LIG1        0.0000
     49 H           8.6217    3.6562    1.2456 H       1  LIG1        0.0000
     50 H           8.5108    1.2902    1.0069 H       1  LIG1        0.0000
     51 H           7.2601   -0.7322    0.8056 H       1  LIG1        0.0000
     52 H           4.8618   -0.6629    0.8146 H       1  LIG1        0.0000
     53 H           3.7565    1.4400    1.0278 H       1  LIG1        0.0000
     54 H           2.5867   -2.0399   -0.0010 H       1  LIG1        0.0000
     55 H           0.9372   -3.9490    1.7777 H       1  LIG1        0.0000
     56 H          -2.6730   -5.2563   -1.1303 H       1  LIG1        0.0000
     57 H          -3.2335   -4.1647   -3.1463 H       1  LIG1        0.0000
     58 H          -1.9325   -2.2185   -3.8524 H       1  LIG1        0.0000
     59 H          -0.1344   -1.5053   -2.4796 H       1  LIG1        0.0000
@<TRIPOS>BOND
     1     1     2    1
     2     2     3    1
     3     2     4    1
     4     4     5    1
     5     5     6    1
     6     6     7    2
     7     7     8    1
     8     8     9    3
     9     7    10    1
    10    10    11    2
    11    10    12   am
    12    12    13    1
    13    13    14   ar
    14    14    15   ar
    15    15    16   ar
    16    16    17   ar
    17    17    18   ar
    18    18    19   ar
    19    19    20   ar
    20    20    21   ar
    21    21    22   ar
    22    22    13   ar
    23    22    17   ar
    24     6    23    1
    25    23    24    1
    26    24    25    2
    27    25    26    1
    28    26    27    1
    29    27    28    2
    30    28    29    1
    31    29    30    1
    32    30    31    2
    33    31    32    1
    34    32    33    2
    35    33    34    1
    36    34    26    2
    37    34    29    1
    38    24    35    1
    39    35     5   am
    40    35    36    2
    41     1    37    1
    42     1    38    1
    43     1    39    1
    44     2    40    1
    45     3    41    1
    46     3    42    1
    47     3    43    1
    48     4    44    1
    49     4    45    1
    50    12    46    1
    51    14    47    1
    52    15    48    1
    53    16    49    1
    54    18    50    1
    55    19    51    1
    56    20    52    1
    57    21    53    1
    58    25    54    1
    59    27    55    1
    60    30    56    1
    61    31    57    1
    62    32    58    1
    63    33    59    1
