@<TRIPOS>MOLECULE

  38   38
SMALL
USER_CHARGES
@<TRIPOS>ATOM
   1 C1           2.2625     5.1950     1.5062 C.3          1    LIG   0.0000
   2 C2           1.8416     3.7348     1.4739 C.3          1    LIG   0.0000
   3 C3           1.6956     3.2814     0.0304 C.3          1    LIG   0.0000
   4 N4           1.2885     1.8691    -0.0008 N.pl3        1    LIG   0.0000
   5 C5           2.1275     0.7968    -0.0291 C.2          1    LIG   0.0000
   6 C6           3.6459     0.8605    -0.0353 C.3          1    LIG   0.0000
   7 O7           4.1121     0.9104    -1.3756 O.3          1    LIG   0.0000
   8 C8           1.3830    -0.3442    -0.0501 C.2          1    LIG   0.0000
   9 C9           0.0251     0.0479    -0.0348 C.2          1    LIG   0.0000
  10 C10          0.0064     1.4104    -0.0037 C.2          1    LIG   0.0000
  11 C11         -1.2420     2.2775     0.0241 C.3          1    LIG   0.0000
  12 C12         -2.4758     1.3898     0.0109 C.3          1    LIG   0.0000
  13 C13         -3.7241     2.2567     0.0386 C.3          1    LIG   0.0000
  14 C14         -4.9579     1.3691     0.0254 C.3          1    LIG   0.0000
  15 C15         -3.7238     3.1051     1.2999 C.3          1    LIG   0.0000
  16 H            2.3585     5.4933     2.4558 H            1    LIG   0.0000
  17 H            3.1375     5.3002     1.0336 H            1    LIG   0.0000
  18 H            1.5683     5.7522     1.0504 H            1    LIG   0.0000
  19 H            2.5357     3.1777     1.9297 H            1    LIG   0.0000
  20 H            0.9666     3.6296     1.9465 H            1    LIG   0.0000
  21 H            1.0014     3.8386    -0.4254 H            1    LIG   0.0000
  22 H            2.5706     3.3866    -0.4421 H            1    LIG   0.0000
  23 H            3.9472     1.6795     0.4532 H            1    LIG   0.0000
  24 H            4.0155     0.0483     0.4162 H            1    LIG   0.0000
  25 H            5.1113     0.9524    -1.3797 H            1    LIG   0.0000
  26 H            1.7312    -1.2813    -0.0721 H            1    LIG   0.0000
  27 H           -0.7700    -0.5585    -0.0449 H            1    LIG   0.0000
  28 H           -1.2517     2.8737    -0.7787 H            1    LIG   0.0000
  29 H           -1.2418     2.8356     0.8538 H            1    LIG   0.0000
  30 H           -2.4761     0.8317    -0.8189 H            1    LIG   0.0000
  31 H           -2.4662     0.7936     0.8136 H            1    LIG   0.0000
  32 H           -3.7338     2.8529    -0.7641 H            1    LIG   0.0000
  33 H           -5.7791     1.9394     0.0437 H            1    LIG   0.0000
  34 H           -4.9581     0.8109    -0.8043 H            1    LIG   0.0000
  35 H           -4.9482     0.7729     0.8282 H            1    LIG   0.0000
  36 H           -4.5449     3.6755     1.3181 H            1    LIG   0.0000
  37 H           -3.7141     2.5089     2.1026 H            1    LIG   0.0000
  38 H           -2.9120     3.6891     1.3086 H            1    LIG   0.0000
@<TRIPOS>BOND
   1        1        2 1
   2        2        3 1
   3        3        4 1
   4        4        5 1
   5        5        6 1
   6        6        7 1
   7        5        8 2
   8        8        9 1
   9        9       10 2
  10       10        4 1
  11       10       11 1
  12       11       12 1
  13       12       13 1
  14       13       14 1
  15       13       15 1
  16        1       16 1
  17        1       17 1
  18        1       18 1
  19        2       19 1
  20        2       20 1
  21        3       21 1
  22        3       22 1
  23        6       23 1
  24        6       24 1
  25        7       25 1
  26        8       26 1
  27        9       27 1
  28       11       28 1
  29       11       29 1
  30       12       30 1
  31       12       31 1
  32       13       32 1
  33       14       33 1
  34       14       34 1
  35       14       35 1
  36       15       36 1
  37       15       37 1
  38       15       38 1

@<TRIPOS>MOLECULE

  38   38
SMALL
USER_CHARGES
@<TRIPOS>ATOM
   1 C1           2.2625     5.1950     1.5062 C.3          1    LIG   0.0000
   2 C2           1.8416     3.7348     1.4739 C.3          1    LIG   0.0000
   3 C3           1.6956     3.2814     0.0304 C.3          1    LIG   0.0000
   4 N4           1.2885     1.8691    -0.0008 N.pl3        1    LIG   0.0000
   5 C5           2.1275     0.7968    -0.0291 C.2          1    LIG   0.0000
   6 C6           3.6459     0.8605    -0.0353 C.3          1    LIG   0.0000
   7 O7           4.1255     0.8503     1.3013 O.3          1    LIG   0.0000
   8 C8           1.3830    -0.3442    -0.0501 C.2          1    LIG   0.0000
   9 C9           0.0251     0.0479    -0.0348 C.2          1    LIG   0.0000
  10 C10          0.0064     1.4104    -0.0037 C.2          1    LIG   0.0000
  11 C11         -1.2420     2.2775     0.0241 C.3          1    LIG   0.0000
  12 C12         -2.4758     1.3898     0.0109 C.3          1    LIG   0.0000
  13 C13         -3.7241     2.2567     0.0386 C.3          1    LIG   0.0000
  14 C14         -4.9579     1.3691     0.0254 C.3          1    LIG   0.0000
  15 C15         -3.7238     3.1051     1.2999 C.3          1    LIG   0.0000
  16 H            2.3585     5.4933     2.4558 H            1    LIG   0.0000
  17 H            3.1375     5.3002     1.0336 H            1    LIG   0.0000
  18 H            1.5683     5.7522     1.0504 H            1    LIG   0.0000
  19 H            2.5357     3.1777     1.9297 H            1    LIG   0.0000
  20 H            0.9666     3.6296     1.9465 H            1    LIG   0.0000
  21 H            1.0014     3.8386    -0.4254 H            1    LIG   0.0000
  22 H            2.5706     3.3866    -0.4421 H            1    LIG   0.0000
  23 H            4.0108     0.0695    -0.5264 H            1    LIG   0.0000
  24 H            3.9425     1.7006    -0.4894 H            1    LIG   0.0000
  25 H            5.1247     0.8922     1.2972 H            1    LIG   0.0000
  26 H            1.7312    -1.2813    -0.0721 H            1    LIG   0.0000
  27 H           -0.7700    -0.5585    -0.0449 H            1    LIG   0.0000
  28 H           -1.2517     2.8737    -0.7787 H            1    LIG   0.0000
  29 H           -1.2418     2.8356     0.8538 H            1    LIG   0.0000
  30 H           -2.4761     0.8317    -0.8189 H            1    LIG   0.0000
  31 H           -2.4662     0.7936     0.8136 H            1    LIG   0.0000
  32 H           -3.7338     2.8529    -0.7641 H            1    LIG   0.0000
  33 H           -5.7791     1.9394     0.0437 H            1    LIG   0.0000
  34 H           -4.9581     0.8109    -0.8043 H            1    LIG   0.0000
  35 H           -4.9482     0.7729     0.8282 H            1    LIG   0.0000
  36 H           -4.5449     3.6755     1.3181 H            1    LIG   0.0000
  37 H           -3.7141     2.5089     2.1026 H            1    LIG   0.0000
  38 H           -2.9120     3.6891     1.3086 H            1    LIG   0.0000
@<TRIPOS>BOND
   1        1        2 1
   2        2        3 1
   3        3        4 1
   4        4        5 1
   5        5        6 1
   6        6        7 1
   7        5        8 2
   8        8        9 1
   9        9       10 2
  10       10        4 1
  11       10       11 1
  12       11       12 1
  13       12       13 1
  14       13       14 1
  15       13       15 1
  16        1       16 1
  17        1       17 1
  18        1       18 1
  19        2       19 1
  20        2       20 1
  21        3       21 1
  22        3       22 1
  23        6       23 1
  24        6       24 1
  25        7       25 1
  26        8       26 1
  27        9       27 1
  28       11       28 1
  29       11       29 1
  30       12       30 1
  31       12       31 1
  32       13       32 1
  33       14       33 1
  34       14       34 1
  35       14       35 1
  36       15       36 1
  37       15       37 1
  38       15       38 1

@<TRIPOS>MOLECULE

  38   38
SMALL
USER_CHARGES
@<TRIPOS>ATOM
   1 C1           2.2511     5.2617    -1.3592 C.3          1    LIG   0.0000
   2 C2           1.8302     3.8015    -1.3915 C.3          1    LIG   0.0000
   3 C3           1.6956     3.2814     0.0304 C.3          1    LIG   0.0000
   4 N4           1.2885     1.8691    -0.0008 N.pl3        1    LIG   0.0000
   5 C5           2.1275     0.7968    -0.0291 C.2          1    LIG   0.0000
   6 C6           3.6459     0.8605    -0.0353 C.3          1    LIG   0.0000
   7 O7           4.1121     0.9104    -1.3756 O.3          1    LIG   0.0000
   8 C8           1.3830    -0.3442    -0.0501 C.2          1    LIG   0.0000
   9 C9           0.0251     0.0479    -0.0348 C.2          1    LIG   0.0000
  10 C10          0.0064     1.4104    -0.0037 C.2          1    LIG   0.0000
  11 C11         -1.2420     2.2775     0.0241 C.3          1    LIG   0.0000
  12 C12         -2.4758     1.3898     0.0109 C.3          1    LIG   0.0000
  13 C13         -3.7241     2.2567     0.0386 C.3          1    LIG   0.0000
  14 C14         -4.9579     1.3691     0.0254 C.3          1    LIG   0.0000
  15 C15         -3.7238     3.1051     1.2999 C.3          1    LIG   0.0000
  16 H            2.3396     5.6038    -2.2946 H            1    LIG   0.0000
  17 H            1.5607     5.7969    -0.8724 H            1    LIG   0.0000
  18 H            3.1298     5.3450    -0.8892 H            1    LIG   0.0000
  19 H            0.9514     3.7182    -1.8614 H            1    LIG   0.0000
  20 H            2.5205     3.2663    -1.8782 H            1    LIG   0.0000
  21 H            2.5743     3.3647     0.5004 H            1    LIG   0.0000
  22 H            1.0052     3.8166     0.5172 H            1    LIG   0.0000
  23 H            3.9472     1.6795     0.4532 H            1    LIG   0.0000
  24 H            4.0155     0.0483     0.4162 H            1    LIG   0.0000
  25 H            5.1113     0.9524    -1.3797 H            1    LIG   0.0000
  26 H            1.7312    -1.2813    -0.0721 H            1    LIG   0.0000
  27 H           -0.7700    -0.5585    -0.0449 H            1    LIG   0.0000
  28 H           -1.2517     2.8737    -0.7787 H            1    LIG   0.0000
  29 H           -1.2418     2.8356     0.8538 H            1    LIG   0.0000
  30 H           -2.4761     0.8317    -0.8189 H            1    LIG   0.0000
  31 H           -2.4662     0.7936     0.8136 H            1    LIG   0.0000
  32 H           -3.7338     2.8529    -0.7641 H            1    LIG   0.0000
  33 H           -5.7791     1.9394     0.0437 H            1    LIG   0.0000
  34 H           -4.9581     0.8109    -0.8043 H            1    LIG   0.0000
  35 H           -4.9482     0.7729     0.8282 H            1    LIG   0.0000
  36 H           -4.5449     3.6755     1.3181 H            1    LIG   0.0000
  37 H           -3.7141     2.5089     2.1026 H            1    LIG   0.0000
  38 H           -2.9120     3.6891     1.3086 H            1    LIG   0.0000
@<TRIPOS>BOND
   1        1        2 1
   2        2        3 1
   3        3        4 1
   4        4        5 1
   5        5        6 1
   6        6        7 1
   7        5        8 2
   8        8        9 1
   9        9       10 2
  10       10        4 1
  11       10       11 1
  12       11       12 1
  13       12       13 1
  14       13       14 1
  15       13       15 1
  16        1       16 1
  17        1       17 1
  18        1       18 1
  19        2       19 1
  20        2       20 1
  21        3       21 1
  22        3       22 1
  23        6       23 1
  24        6       24 1
  25        7       25 1
  26        8       26 1
  27        9       27 1
  28       11       28 1
  29       11       29 1
  30       12       30 1
  31       12       31 1
  32       13       32 1
  33       14       33 1
  34       14       34 1
  35       14       35 1
  36       15       36 1
  37       15       37 1
  38       15       38 1

@<TRIPOS>MOLECULE

  38   38
SMALL
USER_CHARGES
@<TRIPOS>ATOM
   1 C1           2.2511     5.2617    -1.3592 C.3          1    LIG   0.0000
   2 C2           1.8302     3.8015    -1.3915 C.3          1    LIG   0.0000
   3 C3           1.6956     3.2814     0.0304 C.3          1    LIG   0.0000
   4 N4           1.2885     1.8691    -0.0008 N.pl3        1    LIG   0.0000
   5 C5           2.1275     0.7968    -0.0291 C.2          1    LIG   0.0000
   6 C6           3.6459     0.8605    -0.0353 C.3          1    LIG   0.0000
   7 O7           4.1255     0.8503     1.3013 O.3          1    LIG   0.0000
   8 C8           1.3830    -0.3442    -0.0501 C.2          1    LIG   0.0000
   9 C9           0.0251     0.0479    -0.0348 C.2          1    LIG   0.0000
  10 C10          0.0064     1.4104    -0.0037 C.2          1    LIG   0.0000
  11 C11         -1.2420     2.2775     0.0241 C.3          1    LIG   0.0000
  12 C12         -2.4758     1.3898     0.0109 C.3          1    LIG   0.0000
  13 C13         -3.7241     2.2567     0.0386 C.3          1    LIG   0.0000
  14 C14         -4.9579     1.3691     0.0254 C.3          1    LIG   0.0000
  15 C15         -3.7238     3.1051     1.2999 C.3          1    LIG   0.0000
  16 H            2.3396     5.6038    -2.2946 H            1    LIG   0.0000
  17 H            1.5607     5.7969    -0.8724 H            1    LIG   0.0000
  18 H            3.1298     5.3450    -0.8892 H            1    LIG   0.0000
  19 H            0.9514     3.7182    -1.8614 H            1    LIG   0.0000
  20 H            2.5205     3.2663    -1.8782 H            1    LIG   0.0000
  21 H            2.5743     3.3647     0.5004 H            1    LIG   0.0000
  22 H            1.0052     3.8166     0.5172 H            1    LIG   0.0000
  23 H            4.0108     0.0695    -0.5264 H            1    LIG   0.0000
  24 H            3.9425     1.7006    -0.4894 H            1    LIG   0.0000
  25 H            5.1247     0.8922     1.2972 H            1    LIG   0.0000
  26 H            1.7312    -1.2813    -0.0721 H            1    LIG   0.0000
  27 H           -0.7700    -0.5585    -0.0449 H            1    LIG   0.0000
  28 H           -1.2517     2.8737    -0.7787 H            1    LIG   0.0000
  29 H           -1.2418     2.8356     0.8538 H            1    LIG   0.0000
  30 H           -2.4761     0.8317    -0.8189 H            1    LIG   0.0000
  31 H           -2.4662     0.7936     0.8136 H            1    LIG   0.0000
  32 H           -3.7338     2.8529    -0.7641 H            1    LIG   0.0000
  33 H           -5.7791     1.9394     0.0437 H            1    LIG   0.0000
  34 H           -4.9581     0.8109    -0.8043 H            1    LIG   0.0000
  35 H           -4.9482     0.7729     0.8282 H            1    LIG   0.0000
  36 H           -4.5449     3.6755     1.3181 H            1    LIG   0.0000
  37 H           -3.7141     2.5089     2.1026 H            1    LIG   0.0000
  38 H           -2.9120     3.6891     1.3086 H            1    LIG   0.0000
@<TRIPOS>BOND
   1        1        2 1
   2        2        3 1
   3        3        4 1
   4        4        5 1
   5        5        6 1
   6        6        7 1
   7        5        8 2
   8        8        9 1
   9        9       10 2
  10       10        4 1
  11       10       11 1
  12       11       12 1
  13       12       13 1
  14       13       14 1
  15       13       15 1
  16        1       16 1
  17        1       17 1
  18        1       18 1
  19        2       19 1
  20        2       20 1
  21        3       21 1
  22        3       22 1
  23        6       23 1
  24        6       24 1
  25        7       25 1
  26        8       26 1
  27        9       27 1
  28       11       28 1
  29       11       29 1
  30       12       30 1
  31       12       31 1
  32       13       32 1
  33       14       33 1
  34       14       34 1
  35       14       35 1
  36       15       36 1
  37       15       37 1
  38       15       38 1

@<TRIPOS>MOLECULE

  38   38
SMALL
USER_CHARGES
@<TRIPOS>ATOM
   1 C1           3.0419     5.0282    -1.1085 C.3          1    LIG   0.0000
   2 C2           2.6210     3.5680    -1.1408 C.3          1    LIG   0.0000
   3 C3           1.6956     3.2814     0.0304 C.3          1    LIG   0.0000
   4 N4           1.2885     1.8691    -0.0008 N.pl3        1    LIG   0.0000
   5 C5           2.1275     0.7968    -0.0291 C.2          1    LIG   0.0000
   6 C6           3.6459     0.8605    -0.0353 C.3          1    LIG   0.0000
   7 O7           4.1121     0.9104    -1.3756 O.3          1    LIG   0.0000
   8 C8           1.3830    -0.3442    -0.0501 C.2          1    LIG   0.0000
   9 C9           0.0251     0.0479    -0.0348 C.2          1    LIG   0.0000
  10 C10          0.0064     1.4104    -0.0037 C.2          1    LIG   0.0000
  11 C11         -1.2420     2.2775     0.0241 C.3          1    LIG   0.0000
  12 C12         -2.3619     1.5307     0.7302 C.3          1    LIG   0.0000
  13 C13         -3.7011     1.9685     0.1598 C.3          1    LIG   0.0000
  14 C14         -4.8210     1.2217     0.8659 C.3          1    LIG   0.0000
  15 C15         -3.8774     3.4634     0.3706 C.3          1    LIG   0.0000
  16 H            3.6508     5.2167    -1.8791 H            1    LIG   0.0000
  17 H            2.2314     5.6102    -1.1739 H            1    LIG   0.0000
  18 H            3.5205     5.2182    -0.2513 H            1    LIG   0.0000
  19 H            2.1424     3.3779    -1.9980 H            1    LIG   0.0000
  20 H            3.4315     2.9859    -1.0754 H            1    LIG   0.0000
  21 H            2.1741     3.4715     0.8877 H            1    LIG   0.0000
  22 H            0.8851     3.8635    -0.0350 H            1    LIG   0.0000
  23 H            3.9472     1.6795     0.4532 H            1    LIG   0.0000
  24 H            4.0155     0.0483     0.4162 H            1    LIG   0.0000
  25 H            5.1113     0.9524    -1.3797 H            1    LIG   0.0000
  26 H            1.7312    -1.2813    -0.0721 H            1    LIG   0.0000
  27 H           -0.7700    -0.5585    -0.0449 H            1    LIG   0.0000
  28 H           -1.5215     2.4896    -0.9124 H            1    LIG   0.0000
  29 H           -1.0470     3.1270     0.5142 H            1    LIG   0.0000
  30 H           -2.2460     0.5472     0.5915 H            1    LIG   0.0000
  31 H           -2.3336     1.7350     1.7087 H            1    LIG   0.0000
  32 H           -3.7295     1.7642    -0.8187 H            1    LIG   0.0000
  33 H           -5.7021     1.5097     0.4907 H            1    LIG   0.0000
  34 H           -4.7051     0.2382     0.7272 H            1    LIG   0.0000
  35 H           -4.7927     1.4260     1.8444 H            1    LIG   0.0000
  36 H           -4.7584     3.7514    -0.0046 H            1    LIG   0.0000
  37 H           -3.8490     3.6677     1.3491 H            1    LIG   0.0000
  38 H           -3.1406     3.9547    -0.0939 H            1    LIG   0.0000
@<TRIPOS>BOND
   1        1        2 1
   2        2        3 1
   3        3        4 1
   4        4        5 1
   5        5        6 1
   6        6        7 1
   7        5        8 2
   8        8        9 1
   9        9       10 2
  10       10        4 1
  11       10       11 1
  12       11       12 1
  13       12       13 1
  14       13       14 1
  15       13       15 1
  16        1       16 1
  17        1       17 1
  18        1       18 1
  19        2       19 1
  20        2       20 1
  21        3       21 1
  22        3       22 1
  23        6       23 1
  24        6       24 1
  25        7       25 1
  26        8       26 1
  27        9       27 1
  28       11       28 1
  29       11       29 1
  30       12       30 1
  31       12       31 1
  32       13       32 1
  33       14       33 1
  34       14       34 1
  35       14       35 1
  36       15       36 1
  37       15       37 1
  38       15       38 1

@<TRIPOS>MOLECULE

  38   38
SMALL
USER_CHARGES
@<TRIPOS>ATOM
   1 C1           1.4623     5.4831    -1.0916 C.3          1    LIG   0.0000
   2 C2           1.0414     4.0229    -1.1239 C.3          1    LIG   0.0000
   3 C3           1.6956     3.2814     0.0304 C.3          1    LIG   0.0000
   4 N4           1.2885     1.8691    -0.0008 N.pl3        1    LIG   0.0000
   5 C5           2.1275     0.7968    -0.0291 C.2          1    LIG   0.0000
   6 C6           3.6459     0.8605    -0.0353 C.3          1    LIG   0.0000
   7 O7           4.1121     0.9104    -1.3756 O.3          1    LIG   0.0000
   8 C8           1.3830    -0.3442    -0.0501 C.2          1    LIG   0.0000
   9 C9           0.0251     0.0479    -0.0348 C.2          1    LIG   0.0000
  10 C10          0.0064     1.4104    -0.0037 C.2          1    LIG   0.0000
  11 C11         -1.2420     2.2775     0.0241 C.3          1    LIG   0.0000
  12 C12         -2.3619     1.5307     0.7302 C.3          1    LIG   0.0000
  13 C13         -3.2848     2.5279     1.4118 C.3          1    LIG   0.0000
  14 C14         -4.4047     1.7811     2.1179 C.3          1    LIG   0.0000
  15 C15         -2.4951     3.3362     2.4283 C.3          1    LIG   0.0000
  16 H            1.0319     5.9710    -1.8511 H            1    LIG   0.0000
  17 H            1.1751     5.8937    -0.2262 H            1    LIG   0.0000
  18 H            2.4567     5.5453    -1.1763 H            1    LIG   0.0000
  19 H            0.0469     3.9607    -1.0392 H            1    LIG   0.0000
  20 H            1.3285     3.6123    -1.9893 H            1    LIG   0.0000
  21 H            2.6900     3.3436    -0.0543 H            1    LIG   0.0000
  22 H            1.4084     3.6920     0.8959 H            1    LIG   0.0000
  23 H            3.9472     1.6795     0.4532 H            1    LIG   0.0000
  24 H            4.0155     0.0483     0.4162 H            1    LIG   0.0000
  25 H            5.1113     0.9524    -1.3797 H            1    LIG   0.0000
  26 H            1.7312    -1.2813    -0.0721 H            1    LIG   0.0000
  27 H           -0.7700    -0.5585    -0.0449 H            1    LIG   0.0000
  28 H           -1.5215     2.4896    -0.9124 H            1    LIG   0.0000
  29 H           -1.0470     3.1270     0.5142 H            1    LIG   0.0000
  30 H           -2.8815     0.9990     0.0614 H            1    LIG   0.0000
  31 H           -1.9721     0.9152     1.4151 H            1    LIG   0.0000
  32 H           -3.6746     3.1434     0.7268 H            1    LIG   0.0000
  33 H           -5.0118     2.4372     2.5663 H            1    LIG   0.0000
  34 H           -4.9242     1.2494     1.4491 H            1    LIG   0.0000
  35 H           -4.0148     1.1656     2.8028 H            1    LIG   0.0000
  36 H           -3.1022     3.9922     2.8768 H            1    LIG   0.0000
  37 H           -2.1052     2.7207     3.1133 H            1    LIG   0.0000
  38 H           -1.7583     3.8275     1.9638 H            1    LIG   0.0000
@<TRIPOS>BOND
   1        1        2 1
   2        2        3 1
   3        3        4 1
   4        4        5 1
   5        5        6 1
   6        6        7 1
   7        5        8 2
   8        8        9 1
   9        9       10 2
  10       10        4 1
  11       10       11 1
  12       11       12 1
  13       12       13 1
  14       13       14 1
  15       13       15 1
  16        1       16 1
  17        1       17 1
  18        1       18 1
  19        2       19 1
  20        2       20 1
  21        3       21 1
  22        3       22 1
  23        6       23 1
  24        6       24 1
  25        7       25 1
  26        8       26 1
  27        9       27 1
  28       11       28 1
  29       11       29 1
  30       12       30 1
  31       12       31 1
  32       13       32 1
  33       14       33 1
  34       14       34 1
  35       14       35 1
  36       15       36 1
  37       15       37 1
  38       15       38 1

@<TRIPOS>MOLECULE

  38   38
SMALL
USER_CHARGES
@<TRIPOS>ATOM
   1 C1           3.0419     5.0282    -1.1085 C.3          1    LIG   0.0000
   2 C2           2.6210     3.5680    -1.1408 C.3          1    LIG   0.0000
   3 C3           1.6956     3.2814     0.0304 C.3          1    LIG   0.0000
   4 N4           1.2885     1.8691    -0.0008 N.pl3        1    LIG   0.0000
   5 C5           2.1275     0.7968    -0.0291 C.2          1    LIG   0.0000
   6 C6           3.6459     0.8605    -0.0353 C.3          1    LIG   0.0000
   7 O7           4.1121     0.9104    -1.3756 O.3          1    LIG   0.0000
   8 C8           1.3830    -0.3442    -0.0501 C.2          1    LIG   0.0000
   9 C9           0.0251     0.0479    -0.0348 C.2          1    LIG   0.0000
  10 C10          0.0064     1.4104    -0.0037 C.2          1    LIG   0.0000
  11 C11         -1.2420     2.2775     0.0241 C.3          1    LIG   0.0000
  12 C12         -2.3619     1.5307     0.7302 C.3          1    LIG   0.0000
  13 C13         -3.2848     2.5279     1.4118 C.3          1    LIG   0.0000
  14 C14         -4.4047     1.7811     2.1179 C.3          1    LIG   0.0000
  15 C15         -2.4951     3.3362     2.4283 C.3          1    LIG   0.0000
  16 H            3.6508     5.2167    -1.8791 H            1    LIG   0.0000
  17 H            2.2314     5.6102    -1.1739 H            1    LIG   0.0000
  18 H            3.5205     5.2182    -0.2513 H            1    LIG   0.0000
  19 H            2.1424     3.3779    -1.9980 H            1    LIG   0.0000
  20 H            3.4315     2.9859    -1.0754 H            1    LIG   0.0000
  21 H            2.1741     3.4715     0.8877 H            1    LIG   0.0000
  22 H            0.8851     3.8635    -0.0350 H            1    LIG   0.0000
  23 H            3.9472     1.6795     0.4532 H            1    LIG   0.0000
  24 H            4.0155     0.0483     0.4162 H            1    LIG   0.0000
  25 H            5.1113     0.9524    -1.3797 H            1    LIG   0.0000
  26 H            1.7312    -1.2813    -0.0721 H            1    LIG   0.0000
  27 H           -0.7700    -0.5585    -0.0449 H            1    LIG   0.0000
  28 H           -1.5215     2.4896    -0.9124 H            1    LIG   0.0000
  29 H           -1.0470     3.1270     0.5142 H            1    LIG   0.0000
  30 H           -2.8815     0.9990     0.0614 H            1    LIG   0.0000
  31 H           -1.9721     0.9152     1.4151 H            1    LIG   0.0000
  32 H           -3.6746     3.1434     0.7268 H            1    LIG   0.0000
  33 H           -5.0118     2.4372     2.5663 H            1    LIG   0.0000
  34 H           -4.9242     1.2494     1.4491 H            1    LIG   0.0000
  35 H           -4.0148     1.1656     2.8028 H            1    LIG   0.0000
  36 H           -3.1022     3.9922     2.8768 H            1    LIG   0.0000
  37 H           -2.1052     2.7207     3.1133 H            1    LIG   0.0000
  38 H           -1.7583     3.8275     1.9638 H            1    LIG   0.0000
@<TRIPOS>BOND
   1        1        2 1
   2        2        3 1
   3        3        4 1
   4        4        5 1
   5        5        6 1
   6        6        7 1
   7        5        8 2
   8        8        9 1
   9        9       10 2
  10       10        4 1
  11       10       11 1
  12       11       12 1
  13       12       13 1
  14       13       14 1
  15       13       15 1
  16        1       16 1
  17        1       17 1
  18        1       18 1
  19        2       19 1
  20        2       20 1
  21        3       21 1
  22        3       22 1
  23        6       23 1
  24        6       24 1
  25        7       25 1
  26        8       26 1
  27        9       27 1
  28       11       28 1
  29       11       29 1
  30       12       30 1
  31       12       31 1
  32       13       32 1
  33       14       33 1
  34       14       34 1
  35       14       35 1
  36       15       36 1
  37       15       37 1
  38       15       38 1

@<TRIPOS>MOLECULE

  38   38
SMALL
USER_CHARGES
@<TRIPOS>ATOM
   1 C1           3.0513     4.9736     1.2386 C.3          1    LIG   0.0000
   2 C2           2.6304     3.5134     1.2063 C.3          1    LIG   0.0000
   3 C3           1.6956     3.2814     0.0304 C.3          1    LIG   0.0000
   4 N4           1.2885     1.8691    -0.0008 N.pl3        1    LIG   0.0000
   5 C5           2.1275     0.7968    -0.0291 C.2          1    LIG   0.0000
   6 C6           3.6459     0.8605    -0.0353 C.3          1    LIG   0.0000
   7 O7           4.1255     0.8503     1.3013 O.3          1    LIG   0.0000
   8 C8           1.3830    -0.3442    -0.0501 C.2          1    LIG   0.0000
   9 C9           0.0251     0.0479    -0.0348 C.2          1    LIG   0.0000
  10 C10          0.0064     1.4104    -0.0037 C.2          1    LIG   0.0000
  11 C11         -1.2420     2.2775     0.0241 C.3          1    LIG   0.0000
  12 C12         -2.3706     1.5641    -0.7025 C.3          1    LIG   0.0000
  13 C13         -3.7027     1.9744    -0.0961 C.3          1    LIG   0.0000
  14 C14         -4.8313     1.2611    -0.8226 C.3          1    LIG   0.0000
  15 C15         -3.7278     1.5950     1.3755 C.3          1    LIG   0.0000
  16 H            3.6663     5.1262     2.0123 H            1    LIG   0.0000
  17 H            3.5230     5.2034     0.3874 H            1    LIG   0.0000
  18 H            2.2414     5.5518     1.3375 H            1    LIG   0.0000
  19 H            3.4402     2.9351     1.1075 H            1    LIG   0.0000
  20 H            2.1586     3.2835     2.0576 H            1    LIG   0.0000
  21 H            0.8857     3.8596     0.1293 H            1    LIG   0.0000
  22 H            2.1673     3.5112    -0.8208 H            1    LIG   0.0000
  23 H            4.0108     0.0695    -0.5264 H            1    LIG   0.0000
  24 H            3.9425     1.7006    -0.4894 H            1    LIG   0.0000
  25 H            5.1247     0.8922     1.2972 H            1    LIG   0.0000
  26 H            1.7312    -1.2813    -0.0721 H            1    LIG   0.0000
  27 H           -0.7700    -0.5585    -0.0449 H            1    LIG   0.0000
  28 H           -1.0527     3.1490    -0.4283 H            1    LIG   0.0000
  29 H           -1.5101     2.4456     0.9727 H            1    LIG   0.0000
  30 H           -2.3541     1.8138    -1.6707 H            1    LIG   0.0000
  31 H           -2.2533     0.5753    -0.6112 H            1    LIG   0.0000
  32 H           -3.8200     2.9633    -0.1874 H            1    LIG   0.0000
  33 H           -5.7076     1.5311    -0.4237 H            1    LIG   0.0000
  34 H           -4.8147     1.5108    -1.7908 H            1    LIG   0.0000
  35 H           -4.7140     0.2722    -0.7313 H            1    LIG   0.0000
  36 H           -4.6042     1.8649     1.7745 H            1    LIG   0.0000
  37 H           -3.6105     0.6061     1.4668 H            1    LIG   0.0000
  38 H           -2.9853     2.0643     1.8535 H            1    LIG   0.0000
@<TRIPOS>BOND
   1        1        2 1
   2        2        3 1
   3        3        4 1
   4        4        5 1
   5        5        6 1
   6        6        7 1
   7        5        8 2
   8        8        9 1
   9        9       10 2
  10       10        4 1
  11       10       11 1
  12       11       12 1
  13       12       13 1
  14       13       14 1
  15       13       15 1
  16        1       16 1
  17        1       17 1
  18        1       18 1
  19        2       19 1
  20        2       20 1
  21        3       21 1
  22        3       22 1
  23        6       23 1
  24        6       24 1
  25        7       25 1
  26        8       26 1
  27        9       27 1
  28       11       28 1
  29       11       29 1
  30       12       30 1
  31       12       31 1
  32       13       32 1
  33       14       33 1
  34       14       34 1
  35       14       35 1
  36       15       36 1
  37       15       37 1
  38       15       38 1

@<TRIPOS>MOLECULE

  38   38
SMALL
USER_CHARGES
@<TRIPOS>ATOM
   1 C1           1.4716     5.4285     1.2555 C.3          1    LIG   0.0000
   2 C2           1.0507     3.9683     1.2232 C.3          1    LIG   0.0000
   3 C3           1.6956     3.2814     0.0304 C.3          1    LIG   0.0000
   4 N4           1.2885     1.8691    -0.0008 N.pl3        1    LIG   0.0000
   5 C5           2.1275     0.7968    -0.0291 C.2          1    LIG   0.0000
   6 C6           3.6459     0.8605    -0.0353 C.3          1    LIG   0.0000
   7 O7           4.1121     0.9104    -1.3756 O.3          1    LIG   0.0000
   8 C8           1.3830    -0.3442    -0.0501 C.2          1    LIG   0.0000
   9 C9           0.0251     0.0479    -0.0348 C.2          1    LIG   0.0000
  10 C10          0.0064     1.4104    -0.0037 C.2          1    LIG   0.0000
  11 C11         -1.2420     2.2775     0.0241 C.3          1    LIG   0.0000
  12 C12         -2.3706     1.5641    -0.7025 C.3          1    LIG   0.0000
  13 C13         -3.7027     1.9744    -0.0961 C.3          1    LIG   0.0000
  14 C14         -4.8313     1.2611    -0.8226 C.3          1    LIG   0.0000
  15 C15         -3.7278     1.5950     1.3755 C.3          1    LIG   0.0000
  16 H            1.0474     5.8804     2.0403 H            1    LIG   0.0000
  17 H            2.4667     5.4869     1.3351 H            1    LIG   0.0000
  18 H            1.1776     5.8789     0.4125 H            1    LIG   0.0000
  19 H            1.3447     3.5179     2.0663 H            1    LIG   0.0000
  20 H            0.0556     3.9099     1.1436 H            1    LIG   0.0000
  21 H            1.4016     3.7318    -0.8126 H            1    LIG   0.0000
  22 H            2.6907     3.3398     0.1100 H            1    LIG   0.0000
  23 H            3.9472     1.6795     0.4532 H            1    LIG   0.0000
  24 H            4.0155     0.0483     0.4162 H            1    LIG   0.0000
  25 H            5.1113     0.9524    -1.3797 H            1    LIG   0.0000
  26 H            1.7312    -1.2813    -0.0721 H            1    LIG   0.0000
  27 H           -0.7700    -0.5585    -0.0449 H            1    LIG   0.0000
  28 H           -1.0527     3.1490    -0.4283 H            1    LIG   0.0000
  29 H           -1.5101     2.4456     0.9727 H            1    LIG   0.0000
  30 H           -2.3541     1.8138    -1.6707 H            1    LIG   0.0000
  31 H           -2.2533     0.5753    -0.6112 H            1    LIG   0.0000
  32 H           -3.8200     2.9633    -0.1874 H            1    LIG   0.0000
  33 H           -5.7076     1.5311    -0.4237 H            1    LIG   0.0000
  34 H           -4.8147     1.5108    -1.7908 H            1    LIG   0.0000
  35 H           -4.7140     0.2722    -0.7313 H            1    LIG   0.0000
  36 H           -4.6042     1.8649     1.7745 H            1    LIG   0.0000
  37 H           -3.6105     0.6061     1.4668 H            1    LIG   0.0000
  38 H           -2.9853     2.0643     1.8535 H            1    LIG   0.0000
@<TRIPOS>BOND
   1        1        2 1
   2        2        3 1
   3        3        4 1
   4        4        5 1
   5        5        6 1
   6        6        7 1
   7        5        8 2
   8        8        9 1
   9        9       10 2
  10       10        4 1
  11       10       11 1
  12       11       12 1
  13       12       13 1
  14       13       14 1
  15       13       15 1
  16        1       16 1
  17        1       17 1
  18        1       18 1
  19        2       19 1
  20        2       20 1
  21        3       21 1
  22        3       22 1
  23        6       23 1
  24        6       24 1
  25        7       25 1
  26        8       26 1
  27        9       27 1
  28       11       28 1
  29       11       29 1
  30       12       30 1
  31       12       31 1
  32       13       32 1
  33       14       33 1
  34       14       34 1
  35       14       35 1
  36       15       36 1
  37       15       37 1
  38       15       38 1

@<TRIPOS>MOLECULE

  38   38
SMALL
USER_CHARGES
@<TRIPOS>ATOM
   1 C1           1.4716     5.4285     1.2555 C.3          1    LIG   0.0000
   2 C2           1.0507     3.9683     1.2232 C.3          1    LIG   0.0000
   3 C3           1.6956     3.2814     0.0304 C.3          1    LIG   0.0000
   4 N4           1.2885     1.8691    -0.0008 N.pl3        1    LIG   0.0000
   5 C5           2.1275     0.7968    -0.0291 C.2          1    LIG   0.0000
   6 C6           3.6459     0.8605    -0.0353 C.3          1    LIG   0.0000
   7 O7           4.1255     0.8503     1.3013 O.3          1    LIG   0.0000
   8 C8           1.3830    -0.3442    -0.0501 C.2          1    LIG   0.0000
   9 C9           0.0251     0.0479    -0.0348 C.2          1    LIG   0.0000
  10 C10          0.0064     1.4104    -0.0037 C.2          1    LIG   0.0000
  11 C11         -1.2420     2.2775     0.0241 C.3          1    LIG   0.0000
  12 C12         -2.3706     1.5641    -0.7025 C.3          1    LIG   0.0000
  13 C13         -3.7027     1.9744    -0.0961 C.3          1    LIG   0.0000
  14 C14         -4.8313     1.2611    -0.8226 C.3          1    LIG   0.0000
  15 C15         -3.7278     1.5950     1.3755 C.3          1    LIG   0.0000
  16 H            1.0474     5.8804     2.0403 H            1    LIG   0.0000
  17 H            2.4667     5.4869     1.3351 H            1    LIG   0.0000
  18 H            1.1776     5.8789     0.4125 H            1    LIG   0.0000
  19 H            1.3447     3.5179     2.0663 H            1    LIG   0.0000
  20 H            0.0556     3.9099     1.1436 H            1    LIG   0.0000
  21 H            1.4016     3.7318    -0.8126 H            1    LIG   0.0000
  22 H            2.6907     3.3398     0.1100 H            1    LIG   0.0000
  23 H            4.0108     0.0695    -0.5264 H            1    LIG   0.0000
  24 H            3.9425     1.7006    -0.4894 H            1    LIG   0.0000
  25 H            5.1247     0.8922     1.2972 H            1    LIG   0.0000
  26 H            1.7312    -1.2813    -0.0721 H            1    LIG   0.0000
  27 H           -0.7700    -0.5585    -0.0449 H            1    LIG   0.0000
  28 H           -1.0527     3.1490    -0.4283 H            1    LIG   0.0000
  29 H           -1.5101     2.4456     0.9727 H            1    LIG   0.0000
  30 H           -2.3541     1.8138    -1.6707 H            1    LIG   0.0000
  31 H           -2.2533     0.5753    -0.6112 H            1    LIG   0.0000
  32 H           -3.8200     2.9633    -0.1874 H            1    LIG   0.0000
  33 H           -5.7076     1.5311    -0.4237 H            1    LIG   0.0000
  34 H           -4.8147     1.5108    -1.7908 H            1    LIG   0.0000
  35 H           -4.7140     0.2722    -0.7313 H            1    LIG   0.0000
  36 H           -4.6042     1.8649     1.7745 H            1    LIG   0.0000
  37 H           -3.6105     0.6061     1.4668 H            1    LIG   0.0000
  38 H           -2.9853     2.0643     1.8535 H            1    LIG   0.0000
@<TRIPOS>BOND
   1        1        2 1
   2        2        3 1
   3        3        4 1
   4        4        5 1
   5        5        6 1
   6        6        7 1
   7        5        8 2
   8        8        9 1
   9        9       10 2
  10       10        4 1
  11       10       11 1
  12       11       12 1
  13       12       13 1
  14       13       14 1
  15       13       15 1
  16        1       16 1
  17        1       17 1
  18        1       18 1
  19        2       19 1
  20        2       20 1
  21        3       21 1
  22        3       22 1
  23        6       23 1
  24        6       24 1
  25        7       25 1
  26        8       26 1
  27        9       27 1
  28       11       28 1
  29       11       29 1
  30       12       30 1
  31       12       31 1
  32       13       32 1
  33       14       33 1
  34       14       34 1
  35       14       35 1
  36       15       36 1
  37       15       37 1
  38       15       38 1

@<TRIPOS>MOLECULE

  38   38
SMALL
USER_CHARGES
@<TRIPOS>ATOM
   1 C1           3.0419     5.0282    -1.1085 C.3          1    LIG   0.0000
   2 C2           2.6210     3.5680    -1.1408 C.3          1    LIG   0.0000
   3 C3           1.6956     3.2814     0.0304 C.3          1    LIG   0.0000
   4 N4           1.2885     1.8691    -0.0008 N.pl3        1    LIG   0.0000
   5 C5           2.1275     0.7968    -0.0291 C.2          1    LIG   0.0000
   6 C6           3.6459     0.8605    -0.0353 C.3          1    LIG   0.0000
   7 O7           4.1121     0.9104    -1.3756 O.3          1    LIG   0.0000
   8 C8           1.3830    -0.3442    -0.0501 C.2          1    LIG   0.0000
   9 C9           0.0251     0.0479    -0.0348 C.2          1    LIG   0.0000
  10 C10          0.0064     1.4104    -0.0037 C.2          1    LIG   0.0000
  11 C11         -1.2420     2.2775     0.0241 C.3          1    LIG   0.0000
  12 C12         -2.3706     1.5641    -0.7025 C.3          1    LIG   0.0000
  13 C13         -3.7027     1.9744    -0.0961 C.3          1    LIG   0.0000
  14 C14         -4.8313     1.2611    -0.8226 C.3          1    LIG   0.0000
  15 C15         -3.7278     1.5950     1.3755 C.3          1    LIG   0.0000
  16 H            3.6508     5.2167    -1.8791 H            1    LIG   0.0000
  17 H            2.2314     5.6102    -1.1739 H            1    LIG   0.0000
  18 H            3.5205     5.2182    -0.2513 H            1    LIG   0.0000
  19 H            2.1424     3.3779    -1.9980 H            1    LIG   0.0000
  20 H            3.4315     2.9859    -1.0754 H            1    LIG   0.0000
  21 H            2.1741     3.4715     0.8877 H            1    LIG   0.0000
  22 H            0.8851     3.8635    -0.0350 H            1    LIG   0.0000
  23 H            3.9472     1.6795     0.4532 H            1    LIG   0.0000
  24 H            4.0155     0.0483     0.4162 H            1    LIG   0.0000
  25 H            5.1113     0.9524    -1.3797 H            1    LIG   0.0000
  26 H            1.7312    -1.2813    -0.0721 H            1    LIG   0.0000
  27 H           -0.7700    -0.5585    -0.0449 H            1    LIG   0.0000
  28 H           -1.0527     3.1490    -0.4283 H            1    LIG   0.0000
  29 H           -1.5101     2.4456     0.9727 H            1    LIG   0.0000
  30 H           -2.3541     1.8138    -1.6707 H            1    LIG   0.0000
  31 H           -2.2533     0.5753    -0.6112 H            1    LIG   0.0000
  32 H           -3.8200     2.9633    -0.1874 H            1    LIG   0.0000
  33 H           -5.7076     1.5311    -0.4237 H            1    LIG   0.0000
  34 H           -4.8147     1.5108    -1.7908 H            1    LIG   0.0000
  35 H           -4.7140     0.2722    -0.7313 H            1    LIG   0.0000
  36 H           -4.6042     1.8649     1.7745 H            1    LIG   0.0000
  37 H           -3.6105     0.6061     1.4668 H            1    LIG   0.0000
  38 H           -2.9853     2.0643     1.8535 H            1    LIG   0.0000
@<TRIPOS>BOND
   1        1        2 1
   2        2        3 1
   3        3        4 1
   4        4        5 1
   5        5        6 1
   6        6        7 1
   7        5        8 2
   8        8        9 1
   9        9       10 2
  10       10        4 1
  11       10       11 1
  12       11       12 1
  13       12       13 1
  14       13       14 1
  15       13       15 1
  16        1       16 1
  17        1       17 1
  18        1       18 1
  19        2       19 1
  20        2       20 1
  21        3       21 1
  22        3       22 1
  23        6       23 1
  24        6       24 1
  25        7       25 1
  26        8       26 1
  27        9       27 1
  28       11       28 1
  29       11       29 1
  30       12       30 1
  31       12       31 1
  32       13       32 1
  33       14       33 1
  34       14       34 1
  35       14       35 1
  36       15       36 1
  37       15       37 1
  38       15       38 1

