@<TRIPOS>MOLECULE
*****
 38 38 0 0 0
SMALL
USER_CHARGES

@<TRIPOS>ATOM
      1 C1          3.0419    5.0282   -1.1085 C.3     1  LIG1        0.0000
      2 C2          2.6210    3.5680   -1.1408 C.3     1  LIG1        0.0000
      3 C3          1.6956    3.2814    0.0304 C.3     1  LIG1        0.0000
      4 N4          1.2885    1.8691   -0.0008 N.pl3   1  LIG1        0.0000
      5 C5          2.1275    0.7968   -0.0291 C.2     1  LIG1        0.0000
      6 C6          3.6459    0.8605   -0.0353 C.3     1  LIG1        0.0000
      7 O7          4.1121    0.9104   -1.3756 O.3     1  LIG1        0.0000
      8 C8          1.3830   -0.3442   -0.0501 C.2     1  LIG1        0.0000
      9 C9          0.0251    0.0479   -0.0348 C.2     1  LIG1        0.0000
     10 C10         0.0064    1.4104   -0.0037 C.2     1  LIG1        0.0000
     11 C11        -1.2420    2.2775    0.0241 C.3     1  LIG1        0.0000
     12 C12        -2.3619    1.5307    0.7302 C.3     1  LIG1        0.0000
     13 C13        -3.7011    1.9685    0.1598 C.3     1  LIG1        0.0000
     14 C14        -4.8210    1.2217    0.8659 C.3     1  LIG1        0.0000
     15 C15        -3.8774    3.4634    0.3706 C.3     1  LIG1        0.0000
     16 H           3.6508    5.2167   -1.8791 H       1  LIG1        0.0000
     17 H           2.2314    5.6102   -1.1739 H       1  LIG1        0.0000
     18 H           3.5205    5.2182   -0.2513 H       1  LIG1        0.0000
     19 H           2.1424    3.3779   -1.9980 H       1  LIG1        0.0000
     20 H           3.4315    2.9859   -1.0754 H       1  LIG1        0.0000
     21 H           2.1741    3.4715    0.8877 H       1  LIG1        0.0000
     22 H           0.8851    3.8635   -0.0350 H       1  LIG1        0.0000
     23 H           3.9472    1.6795    0.4532 H       1  LIG1        0.0000
     24 H           4.0155    0.0483    0.4162 H       1  LIG1        0.0000
     25 H           5.1113    0.9524   -1.3797 H       1  LIG1        0.0000
     26 H           1.7312   -1.2813   -0.0721 H       1  LIG1        0.0000
     27 H          -0.7700   -0.5585   -0.0449 H       1  LIG1        0.0000
     28 H          -1.5215    2.4896   -0.9124 H       1  LIG1        0.0000
     29 H          -1.0470    3.1270    0.5142 H       1  LIG1        0.0000
     30 H          -2.2460    0.5472    0.5915 H       1  LIG1        0.0000
     31 H          -2.3336    1.7350    1.7087 H       1  LIG1        0.0000
     32 H          -3.7295    1.7642   -0.8187 H       1  LIG1        0.0000
     33 H          -5.7021    1.5097    0.4907 H       1  LIG1        0.0000
     34 H          -4.7051    0.2382    0.7272 H       1  LIG1        0.0000
     35 H          -4.7927    1.4260    1.8444 H       1  LIG1        0.0000
     36 H          -4.7584    3.7514   -0.0046 H       1  LIG1        0.0000
     37 H          -3.8490    3.6677    1.3491 H       1  LIG1        0.0000
     38 H          -3.1406    3.9547   -0.0939 H       1  LIG1        0.0000
@<TRIPOS>BOND
     1     1     2    1
     2     2     3    1
     3     3     4    1
     4     4     5    1
     5     5     6    1
     6     6     7    1
     7     5     8    2
     8     8     9    1
     9     9    10    2
    10    10     4    1
    11    10    11    1
    12    11    12    1
    13    12    13    1
    14    13    14    1
    15    13    15    1
    16     1    16    1
    17     1    17    1
    18     1    18    1
    19     2    19    1
    20     2    20    1
    21     3    21    1
    22     3    22    1
    23     6    23    1
    24     6    24    1
    25     7    25    1
    26     8    26    1
    27     9    27    1
    28    11    28    1
    29    11    29    1
    30    12    30    1
    31    12    31    1
    32    13    32    1
    33    14    33    1
    34    14    34    1
    35    14    35    1
    36    15    36    1
    37    15    37    1
    38    15    38    1
