@<TRIPOS>MOLECULE
*****
 38 38 0 0 0
SMALL
USER_CHARGES

@<TRIPOS>ATOM
      1 C1          2.2511    5.2617   -1.3592 C.3     1  LIG1        0.0000
      2 C2          1.8302    3.8015   -1.3915 C.3     1  LIG1        0.0000
      3 C3          1.6956    3.2814    0.0304 C.3     1  LIG1        0.0000
      4 N4          1.2885    1.8691   -0.0008 N.pl3   1  LIG1        0.0000
      5 C5          2.1275    0.7968   -0.0291 C.2     1  LIG1        0.0000
      6 C6          3.6459    0.8605   -0.0353 C.3     1  LIG1        0.0000
      7 O7          4.1121    0.9104   -1.3756 O.3     1  LIG1        0.0000
      8 C8          1.3830   -0.3442   -0.0501 C.2     1  LIG1        0.0000
      9 C9          0.0251    0.0479   -0.0348 C.2     1  LIG1        0.0000
     10 C10         0.0064    1.4104   -0.0037 C.2     1  LIG1        0.0000
     11 C11        -1.2420    2.2775    0.0241 C.3     1  LIG1        0.0000
     12 C12        -2.4758    1.3898    0.0109 C.3     1  LIG1        0.0000
     13 C13        -3.7241    2.2567    0.0386 C.3     1  LIG1        0.0000
     14 C14        -4.9579    1.3691    0.0254 C.3     1  LIG1        0.0000
     15 C15        -3.7238    3.1051    1.2999 C.3     1  LIG1        0.0000
     16 H           2.3396    5.6038   -2.2946 H       1  LIG1        0.0000
     17 H           1.5607    5.7969   -0.8724 H       1  LIG1        0.0000
     18 H           3.1298    5.3450   -0.8892 H       1  LIG1        0.0000
     19 H           0.9514    3.7182   -1.8614 H       1  LIG1        0.0000
     20 H           2.5205    3.2663   -1.8782 H       1  LIG1        0.0000
     21 H           2.5743    3.3647    0.5004 H       1  LIG1        0.0000
     22 H           1.0052    3.8166    0.5172 H       1  LIG1        0.0000
     23 H           3.9472    1.6795    0.4532 H       1  LIG1        0.0000
     24 H           4.0155    0.0483    0.4162 H       1  LIG1        0.0000
     25 H           5.1113    0.9524   -1.3797 H       1  LIG1        0.0000
     26 H           1.7312   -1.2813   -0.0721 H       1  LIG1        0.0000
     27 H          -0.7700   -0.5585   -0.0449 H       1  LIG1        0.0000
     28 H          -1.2517    2.8737   -0.7787 H       1  LIG1        0.0000
     29 H          -1.2418    2.8356    0.8538 H       1  LIG1        0.0000
     30 H          -2.4761    0.8317   -0.8189 H       1  LIG1        0.0000
     31 H          -2.4662    0.7936    0.8136 H       1  LIG1        0.0000
     32 H          -3.7338    2.8529   -0.7641 H       1  LIG1        0.0000
     33 H          -5.7791    1.9394    0.0437 H       1  LIG1        0.0000
     34 H          -4.9581    0.8109   -0.8043 H       1  LIG1        0.0000
     35 H          -4.9482    0.7729    0.8282 H       1  LIG1        0.0000
     36 H          -4.5449    3.6755    1.3181 H       1  LIG1        0.0000
     37 H          -3.7141    2.5089    2.1026 H       1  LIG1        0.0000
     38 H          -2.9120    3.6891    1.3086 H       1  LIG1        0.0000
@<TRIPOS>BOND
     1     1     2    1
     2     2     3    1
     3     3     4    1
     4     4     5    1
     5     5     6    1
     6     6     7    1
     7     5     8    2
     8     8     9    1
     9     9    10    2
    10    10     4    1
    11    10    11    1
    12    11    12    1
    13    12    13    1
    14    13    14    1
    15    13    15    1
    16     1    16    1
    17     1    17    1
    18     1    18    1
    19     2    19    1
    20     2    20    1
    21     3    21    1
    22     3    22    1
    23     6    23    1
    24     6    24    1
    25     7    25    1
    26     8    26    1
    27     9    27    1
    28    11    28    1
    29    11    29    1
    30    12    30    1
    31    12    31    1
    32    13    32    1
    33    14    33    1
    34    14    34    1
    35    14    35    1
    36    15    36    1
    37    15    37    1
    38    15    38    1
