@<TRIPOS>MOLECULE

  56   60
SMALL
USER_CHARGES
@<TRIPOS>ATOM
   1 C1          -1.8955     5.9254     0.9994 C.3          1    LIG   0.0000
   2 C2          -1.1075     4.6250     0.9996 C.2          1    LIG   0.0000
   3 C3           0.2603     4.6951     0.9997 C.2          1    LIG   0.0000
   4 C4           0.9964     3.4813     1.0001 C.2          1    LIG   0.0000
   5 O5           2.2173     3.5076     1.0003 O.2          1    LIG   0.0000
   6 C6           0.2746     2.2564     1.0000 C.2          1    LIG   0.0000
   7 C7           1.0000     1.0000     1.0000 C.2          1    LIG   0.0000
   8 O8           0.4000    -0.0392     1.0000 O.2          1    LIG   0.0000
   9 N9           2.3700     1.0000     1.0000 N.am         1    LIG   0.0000
  10 C10          3.0729    -0.2175     1.0000 C.ar         1    LIG   0.0000
  11 C11          2.3645    -1.4156     0.9995 C.ar         1    LIG   0.0000
  12 C12          3.0477    -2.6277     0.9988 C.ar         1    LIG   0.0000
  13 C13          4.4380    -2.6749     0.9981 C.ar         1    LIG   0.0000
  14 N14          5.3328    -3.7066     0.9992 N.2          1    LIG   0.0000
  15 C15          6.5449    -3.2019     0.9995 C.2          1    LIG   0.0000
  16 C16          7.8307    -4.0127     1.0002 C.3          1    LIG   0.0000
  17 C17          8.2583    -4.2823     2.4321 C.ar         1    LIG   0.0000
  18 C18          7.9879    -5.5122     3.0212 C.ar         1    LIG   0.0000
  19 C19          8.3796    -5.7561     4.3330 C.ar         1    LIG   0.0000
  20 C20          9.0414    -4.7697     5.0554 C.ar         1    LIG   0.0000
  21 C21          9.3107    -3.5394     4.4667 C.ar         1    LIG   0.0000
  22 C22          8.9194    -3.2958     3.1545 C.ar         1    LIG   0.0000
  23 F23          9.1759    -2.1194     2.5919 F            1    LIG   0.0000
  24 N24          6.4740    -1.8403     0.9994 N.pl3        1    LIG   0.0000
  25 C25          5.1511    -1.5036     0.9997 C.ar         1    LIG   0.0000
  26 C26          4.4652    -0.2903     1.0000 C.ar         1    LIG   0.0000
  27 N27         -1.0467     2.2727     1.0000 N.2          1    LIG   0.0000
  28 N28         -1.7320     3.4031     0.9997 N.pl3        1    LIG   0.0000
  29 C29         -3.1298     3.3316     0.9995 C.ar         1    LIG   0.0000
  30 C30         -3.7938     2.6945     2.0427 C.ar         1    LIG   0.0000
  31 C31         -5.1829     2.6273     2.0321 C.ar         1    LIG   0.0000
  32 C32         -5.8988     3.1969     0.9843 C.ar         1    LIG   0.0000
  33 C33         -5.2393     3.8351    -0.0609 C.ar         1    LIG   0.0000
  34 C34         -3.8500     3.8987    -0.0458 C.ar         1    LIG   0.0000
  35 N35         -3.1742     4.5386    -1.0913 N.2          1    LIG   1.0000
  36 O36         -1.9656     4.5974    -1.0841 O.co2        1    LIG   0.0000
  37 O37         -3.8037     5.0371    -2.0098 O.co2        1    LIG  -1.0000
  38 H            7.2473    -1.2063     0.9992 H            1    LIG   0.0000
  39 H           -1.2620     6.6991     0.9993 H            1    LIG   0.0000
  40 H           -2.4714     5.9660     0.1828 H            1    LIG   0.0000
  41 H           -2.4715     5.9662     1.8158 H            1    LIG   0.0000
  42 H            0.7285     5.5787     0.9997 H            1    LIG   0.0000
  43 H            2.8700     1.8660     1.0000 H            1    LIG   0.0000
  44 H            1.3646    -1.4052     0.9996 H            1    LIG   0.0000
  45 H            2.5287    -3.4825     0.9988 H            1    LIG   0.0000
  46 H            7.6773    -4.8813     0.5290 H            1    LIG   0.0000
  47 H            8.5484    -3.5000     0.5290 H            1    LIG   0.0000
  48 H            7.5118    -6.2215     2.5015 H            1    LIG   0.0000
  49 H            8.1853    -6.6408     4.7567 H            1    LIG   0.0000
  50 H            9.3236    -4.9452     5.9986 H            1    LIG   0.0000
  51 H            9.7859    -2.8296     4.9867 H            1    LIG   0.0000
  52 H            4.9915     0.5601     1.0002 H            1    LIG   0.0000
  53 H           -3.2758     2.2875     2.7951 H            1    LIG   0.0000
  54 H           -5.6670     2.1694     2.7778 H            1    LIG   0.0000
  55 H           -6.8975     3.1471     0.9824 H            1    LIG   0.0000
  56 H           -5.7570     4.2428    -0.8131 H            1    LIG   0.0000
@<TRIPOS>BOND
   1        1        2 1
   2        2        3 2
   3        3        4 1
   4        4        5 2
   5        4        6 1
   6        6        7 1
   7        7        8 2
   8        7        9 am
   9        9       10 1
  10       10       11 ar
  11       11       12 ar
  12       12       13 ar
  13       13       14 1
  14       14       15 2
  15       15       16 1
  16       16       17 1
  17       17       18 ar
  18       18       19 ar
  19       19       20 ar
  20       20       21 ar
  21       21       22 ar
  22       22       17 ar
  23       22       23 1
  24       15       24 1
  25       24       25 1
  26       25       13 ar
  27       25       26 ar
  28       26       10 ar
  29        6       27 2
  30       27       28 1
  31       28        2 1
  32       28       29 1
  33       29       30 ar
  34       30       31 ar
  35       31       32 ar
  36       32       33 ar
  37       33       34 ar
  38       34       29 ar
  39       34       35 1
  40       35       36 ar
  41       35       37 ar
  42       24       38 1
  43        1       39 1
  44        1       40 1
  45        1       41 1
  46        3       42 1
  47        9       43 1
  48       11       44 1
  49       12       45 1
  50       16       46 1
  51       16       47 1
  52       18       48 1
  53       19       49 1
  54       20       50 1
  55       21       51 1
  56       26       52 1
  57       30       53 1
  58       31       54 1
  59       32       55 1
  60       33       56 1

@<TRIPOS>MOLECULE

  56   60
SMALL
USER_CHARGES
@<TRIPOS>ATOM
   1 C1          -1.8177     5.9703     1.0006 C.3          1    LIG   0.0000
   2 C2          -1.0856     4.6376     1.0004 C.2          1    LIG   0.0000
   3 C3          -1.8302     3.4881     1.0003 C.2          1    LIG   0.0000
   4 C4          -1.1471     2.2438     0.9999 C.2          1    LIG   0.0000
   5 O5          -1.7803     1.1996     0.9997 O.2          1    LIG   0.0000
   6 C6           0.2746     2.2564     1.0000 C.2          1    LIG   0.0000
   7 C7           1.0000     1.0000     1.0000 C.2          1    LIG   0.0000
   8 O8           0.4000    -0.0392     1.0000 O.2          1    LIG   0.0000
   9 N9           2.3700     1.0000     1.0000 N.am         1    LIG   0.0000
  10 C10          3.0729    -0.2175     1.0000 C.ar         1    LIG   0.0000
  11 C11          2.3645    -1.4156     0.9995 C.ar         1    LIG   0.0000
  12 C12          3.0477    -2.6277     0.9988 C.ar         1    LIG   0.0000
  13 C13          4.4380    -2.6749     0.9981 C.ar         1    LIG   0.0000
  14 N14          5.3328    -3.7066     0.9992 N.2          1    LIG   0.0000
  15 C15          6.5449    -3.2019     0.9995 C.2          1    LIG   0.0000
  16 C16          7.8307    -4.0127     1.0002 C.3          1    LIG   0.0000
  17 C17          8.2583    -4.2823     2.4321 C.ar         1    LIG   0.0000
  18 C18          7.9879    -5.5122     3.0212 C.ar         1    LIG   0.0000
  19 C19          8.3796    -5.7561     4.3330 C.ar         1    LIG   0.0000
  20 C20          9.0414    -4.7697     5.0554 C.ar         1    LIG   0.0000
  21 C21          9.3107    -3.5394     4.4667 C.ar         1    LIG   0.0000
  22 C22          8.9194    -3.2958     3.1545 C.ar         1    LIG   0.0000
  23 F23          9.1759    -2.1194     2.5919 F            1    LIG   0.0000
  24 N24          6.4740    -1.8403     0.9994 N.pl3        1    LIG   0.0000
  25 C25          5.1511    -1.5036     0.9997 C.ar         1    LIG   0.0000
  26 C26          4.4652    -0.2903     1.0000 C.ar         1    LIG   0.0000
  27 N27          0.9212     3.4089     1.0000 N.2          1    LIG   0.0000
  28 N28          0.2848     4.5675     1.0003 N.pl3        1    LIG   0.0000
  29 C29          1.0457     5.7423     1.0005 C.ar         1    LIG   0.0000
  30 C30          1.9295     5.9988    -0.0427 C.ar         1    LIG   0.0000
  31 C31          2.6822     7.1681    -0.0321 C.ar         1    LIG   0.0000
  32 C32          2.5468     8.0730     1.0157 C.ar         1    LIG   0.0000
  33 C33          1.6643     7.8209     2.0609 C.ar         1    LIG   0.0000
  34 C34          0.9146     6.6496     2.0458 C.ar         1    LIG   0.0000
  35 N35          0.0226     6.3843     3.0913 N.2          1    LIG   1.0000
  36 O36         -0.6326     5.3670     3.0841 O.co2        1    LIG   0.0000
  37 O37         -0.0943     7.1787     4.0098 O.co2        1    LIG  -1.0000
  38 H            7.2473    -1.2063     0.9992 H            1    LIG   0.0000
  39 H           -2.8045     5.8085     1.0007 H            1    LIG   0.0000
  40 H           -1.5650     6.4893     1.8172 H            1    LIG   0.0000
  41 H           -1.5651     6.4895     0.1842 H            1    LIG   0.0000
  42 H           -2.8295     3.5245     1.0003 H            1    LIG   0.0000
  43 H            2.8700     1.8660     1.0000 H            1    LIG   0.0000
  44 H            1.3646    -1.4052     0.9996 H            1    LIG   0.0000
  45 H            2.5287    -3.4825     0.9988 H            1    LIG   0.0000
  46 H            7.6773    -4.8813     0.5290 H            1    LIG   0.0000
  47 H            8.5484    -3.5000     0.5290 H            1    LIG   0.0000
  48 H            7.5118    -6.2215     2.5015 H            1    LIG   0.0000
  49 H            8.1853    -6.6408     4.7567 H            1    LIG   0.0000
  50 H            9.3236    -4.9452     5.9986 H            1    LIG   0.0000
  51 H            9.7859    -2.8296     4.9867 H            1    LIG   0.0000
  52 H            4.9915     0.5601     1.0002 H            1    LIG   0.0000
  53 H            2.0229     5.3467    -0.7951 H            1    LIG   0.0000
  54 H            3.3207     7.3585    -0.7778 H            1    LIG   0.0000
  55 H            3.0893     8.9130     1.0176 H            1    LIG   0.0000
  56 H            1.5702     8.4731     2.8131 H            1    LIG   0.0000
@<TRIPOS>BOND
   1        1        2 1
   2        2        3 2
   3        3        4 1
   4        4        5 2
   5        4        6 1
   6        6        7 1
   7        7        8 2
   8        7        9 am
   9        9       10 1
  10       10       11 ar
  11       11       12 ar
  12       12       13 ar
  13       13       14 1
  14       14       15 2
  15       15       16 1
  16       16       17 1
  17       17       18 ar
  18       18       19 ar
  19       19       20 ar
  20       20       21 ar
  21       21       22 ar
  22       22       17 ar
  23       22       23 1
  24       15       24 1
  25       24       25 1
  26       25       13 ar
  27       25       26 ar
  28       26       10 ar
  29        6       27 2
  30       27       28 1
  31       28        2 1
  32       28       29 1
  33       29       30 ar
  34       30       31 ar
  35       31       32 ar
  36       32       33 ar
  37       33       34 ar
  38       34       29 ar
  39       34       35 1
  40       35       36 ar
  41       35       37 ar
  42       24       38 1
  43        1       39 1
  44        1       40 1
  45        1       41 1
  46        3       42 1
  47        9       43 1
  48       11       44 1
  49       12       45 1
  50       16       46 1
  51       16       47 1
  52       18       48 1
  53       19       49 1
  54       20       50 1
  55       21       51 1
  56       26       52 1
  57       30       53 1
  58       31       54 1
  59       32       55 1
  60       33       56 1

@<TRIPOS>MOLECULE

  56   60
SMALL
USER_CHARGES
@<TRIPOS>ATOM
   1 C1          -1.8367     5.9593     0.9614 C.3          1    LIG   0.0000
   2 C2          -1.0908     4.6346     0.9893 C.2          1    LIG   0.0000
   3 C3          -1.3074     3.7900     2.0454 C.2          1    LIG   0.0000
   4 C4          -0.6113     2.5532     2.0717 C.2          1    LIG   0.0000
   5 O5          -0.7811     1.7765     2.9986 O.2          1    LIG   0.0000
   6 C6           0.2746     2.2564     1.0000 C.2          1    LIG   0.0000
   7 C7           1.0000     1.0000     1.0000 C.2          1    LIG   0.0000
   8 O8           0.4000    -0.0392     1.0000 O.2          1    LIG   0.0000
   9 N9           2.3700     1.0000     1.0000 N.am         1    LIG   0.0000
  10 C10          3.0729    -0.2175     1.0000 C.ar         1    LIG   0.0000
  11 C11          2.3645    -1.4156     0.9995 C.ar         1    LIG   0.0000
  12 C12          3.0477    -2.6277     0.9988 C.ar         1    LIG   0.0000
  13 C13          4.4380    -2.6749     0.9981 C.ar         1    LIG   0.0000
  14 N14          5.3328    -3.7066     0.9992 N.2          1    LIG   0.0000
  15 C15          6.5449    -3.2019     0.9995 C.2          1    LIG   0.0000
  16 C16          7.8307    -4.0127     1.0002 C.3          1    LIG   0.0000
  17 C17          8.2583    -4.2823     2.4321 C.ar         1    LIG   0.0000
  18 C18          9.2543    -3.5107     3.0198 C.ar         1    LIG   0.0000
  19 C19          9.6448    -3.7604     4.3310 C.ar         1    LIG   0.0000
  20 C20          9.0392    -4.7819     5.0538 C.ar         1    LIG   0.0000
  21 C21          8.0439    -5.5541     4.4657 C.ar         1    LIG   0.0000
  22 C22          7.6531    -5.3039     3.1545 C.ar         1    LIG   0.0000
  23 F23          6.7025    -6.0428     2.5919 F            1    LIG   0.0000
  24 N24          6.4740    -1.8403     0.9994 N.pl3        1    LIG   0.0000
  25 C25          5.1511    -1.5036     0.9997 C.ar         1    LIG   0.0000
  26 C26          4.4652    -0.2903     1.0000 C.ar         1    LIG   0.0000
  27 N27          0.4292     3.1248     0.0160 N.2          1    LIG   0.0000
  28 N28         -0.2191     4.2765    -0.0082 N.pl3        1    LIG   0.0000
  29 C29          0.0022     5.1398    -1.0875 C.ar         1    LIG   0.0000
  30 C30          1.2814     5.6246    -1.3394 C.ar         1    LIG   0.0000
  31 C31          1.4904     6.4834    -2.4132 C.ar         1    LIG   0.0000
  32 C32          0.4243     6.8501    -3.2281 C.ar         1    LIG   0.0000
  33 C33         -0.8566     6.3679    -2.9802 C.ar         1    LIG   0.0000
  34 C34         -1.0600     5.5101    -1.9046 C.ar         1    LIG   0.0000
  35 N35         -2.3441     5.0173    -1.6445 N.2          1    LIG   1.0000
  36 O36         -2.5278     4.2706    -0.7103 O.co2        1    LIG   0.0000
  37 O37         -3.2780     5.3406    -2.3599 O.co2        1    LIG  -1.0000
  38 H            7.2473    -1.2063     0.9992 H            1    LIG   0.0000
  39 H           -2.4184     6.0315     1.7716 H            1    LIG   0.0000
  40 H           -1.1787     6.7123     0.9554 H            1    LIG   0.0000
  41 H           -2.4036     6.0054     0.1389 H            1    LIG   0.0000
  42 H           -1.9398     4.0382     2.7792 H            1    LIG   0.0000
  43 H            2.8700     1.8660     1.0000 H            1    LIG   0.0000
  44 H            1.3646    -1.4052     0.9996 H            1    LIG   0.0000
  45 H            2.5287    -3.4825     0.9988 H            1    LIG   0.0000
  46 H            7.6773    -4.8813     0.5290 H            1    LIG   0.0000
  47 H            8.5484    -3.5000     0.5290 H            1    LIG   0.0000
  48 H            9.6900    -2.7761     2.4997 H            1    LIG   0.0000
  49 H           10.3611    -3.2053     4.7537 H            1    LIG   0.0000
  50 H            9.3194    -4.9612     5.9968 H            1    LIG   0.0000
  51 H            7.6090    -6.2895     4.9854 H            1    LIG   0.0000
  52 H            4.9915     0.5601     1.0002 H            1    LIG   0.0000
  53 H            2.0457     5.3575    -0.7524 H            1    LIG   0.0000
  54 H            2.4070     6.8371    -2.5995 H            1    LIG   0.0000
  55 H            0.5804     7.4667    -3.9999 H            1    LIG   0.0000
  56 H           -1.6208     6.6344    -3.5675 H            1    LIG   0.0000
@<TRIPOS>BOND
   1        1        2 1
   2        2        3 2
   3        3        4 1
   4        4        5 2
   5        4        6 1
   6        6        7 1
   7        7        8 2
   8        7        9 am
   9        9       10 1
  10       10       11 ar
  11       11       12 ar
  12       12       13 ar
  13       13       14 1
  14       14       15 2
  15       15       16 1
  16       16       17 1
  17       17       18 ar
  18       18       19 ar
  19       19       20 ar
  20       20       21 ar
  21       21       22 ar
  22       22       17 ar
  23       22       23 1
  24       15       24 1
  25       24       25 1
  26       25       13 ar
  27       25       26 ar
  28       26       10 ar
  29        6       27 2
  30       27       28 1
  31       28        2 1
  32       28       29 1
  33       29       30 ar
  34       30       31 ar
  35       31       32 ar
  36       32       33 ar
  37       33       34 ar
  38       34       29 ar
  39       34       35 1
  40       35       36 ar
  41       35       37 ar
  42       24       38 1
  43        1       39 1
  44        1       40 1
  45        1       41 1
  46        3       42 1
  47        9       43 1
  48       11       44 1
  49       12       45 1
  50       16       46 1
  51       16       47 1
  52       18       48 1
  53       19       49 1
  54       20       50 1
  55       21       51 1
  56       26       52 1
  57       30       53 1
  58       31       54 1
  59       32       55 1
  60       33       56 1

@<TRIPOS>MOLECULE

  56   60
SMALL
USER_CHARGES
@<TRIPOS>ATOM
   1 C1          -1.8868     5.9304     1.0284 C.3          1    LIG   0.0000
   2 C2          -1.1051     4.6263     1.0078 C.2          1    LIG   0.0000
   3 C3           0.0156     4.5538     0.2240 C.2          1    LIG   0.0000
   4 C4           0.7457     3.3366     0.2046 C.2          1    LIG   0.0000
   5 O5           1.7498     3.2377    -0.4833 O.2          1    LIG   0.0000
   6 C6           0.2746     2.2564     1.0000 C.2          1    LIG   0.0000
   7 C7           1.0000     1.0000     1.0000 C.2          1    LIG   0.0000
   8 O8           0.4000    -0.0392     1.0000 O.2          1    LIG   0.0000
   9 N9           2.3700     1.0000     1.0000 N.am         1    LIG   0.0000
  10 C10          3.0729    -0.2175     1.0000 C.ar         1    LIG   0.0000
  11 C11          2.3645    -1.4156     0.9995 C.ar         1    LIG   0.0000
  12 C12          3.0477    -2.6277     0.9988 C.ar         1    LIG   0.0000
  13 C13          4.4380    -2.6749     0.9981 C.ar         1    LIG   0.0000
  14 N14          5.3328    -3.7066     0.9992 N.2          1    LIG   0.0000
  15 C15          6.5449    -3.2019     0.9995 C.2          1    LIG   0.0000
  16 C16          7.8307    -4.0127     1.0002 C.3          1    LIG   0.0000
  17 C17          8.2583    -4.2823     2.4321 C.ar         1    LIG   0.0000
  18 C18          9.2543    -3.5107     3.0198 C.ar         1    LIG   0.0000
  19 C19          9.6448    -3.7604     4.3310 C.ar         1    LIG   0.0000
  20 C20          9.0392    -4.7819     5.0538 C.ar         1    LIG   0.0000
  21 C21          8.0439    -5.5541     4.4657 C.ar         1    LIG   0.0000
  22 C22          7.6531    -5.3039     3.1545 C.ar         1    LIG   0.0000
  23 F23          6.7025    -6.0428     2.5919 F            1    LIG   0.0000
  24 N24          6.4740    -1.8403     0.9994 N.pl3        1    LIG   0.0000
  25 C25          5.1511    -1.5036     0.9997 C.ar         1    LIG   0.0000
  26 C26          4.4652    -0.2903     1.0000 C.ar         1    LIG   0.0000
  27 N27         -0.8165     2.4056     1.7303 N.2          1    LIG   0.0000
  28 N28         -1.4962     3.5392     1.7482 N.pl3        1    LIG   0.0000
  29 C29         -2.6416     3.6134     2.5492 C.ar         1    LIG   0.0000
  30 C30         -3.8999     3.6761     1.9594 C.ar         1    LIG   0.0000
  31 C31         -5.0316     3.7515     2.7642 C.ar         1    LIG   0.0000
  32 C32         -4.9008     3.7616     4.1491 C.ar         1    LIG   0.0000
  33 C33         -3.6448     3.6990     4.7433 C.ar         1    LIG   0.0000
  34 C34         -2.5164     3.6245     3.9338 C.ar         1    LIG   0.0000
  35 N35         -1.2466     3.5605     4.5193 N.2          1    LIG   1.0000
  36 O36         -0.2608     3.4956     3.8206 O.co2        1    LIG   0.0000
  37 O37         -1.1338     3.5701     5.7340 O.co2        1    LIG  -1.0000
  38 H            7.2473    -1.2063     0.9992 H            1    LIG   0.0000
  39 H           -1.4429     6.5947     0.4270 H            1    LIG   0.0000
  40 H           -2.8203     5.7646     0.7104 H            1    LIG   0.0000
  41 H           -1.9114     6.2896     1.9613 H            1    LIG   0.0000
  42 H            0.3121     5.3383    -0.3207 H            1    LIG   0.0000
  43 H            2.8700     1.8660     1.0000 H            1    LIG   0.0000
  44 H            1.3646    -1.4052     0.9996 H            1    LIG   0.0000
  45 H            2.5287    -3.4825     0.9988 H            1    LIG   0.0000
  46 H            7.6773    -4.8813     0.5290 H            1    LIG   0.0000
  47 H            8.5484    -3.5000     0.5290 H            1    LIG   0.0000
  48 H            9.6900    -2.7761     2.4997 H            1    LIG   0.0000
  49 H           10.3611    -3.2053     4.7537 H            1    LIG   0.0000
  50 H            9.3194    -4.9612     5.9968 H            1    LIG   0.0000
  51 H            7.6090    -6.2895     4.9854 H            1    LIG   0.0000
  52 H            4.9915     0.5601     1.0002 H            1    LIG   0.0000
  53 H           -3.9901     3.6670     0.9636 H            1    LIG   0.0000
  54 H           -5.9394     3.7985     2.3474 H            1    LIG   0.0000
  55 H           -5.7180     3.8143     4.7231 H            1    LIG   0.0000
  56 H           -3.5544     3.7074     5.7392 H            1    LIG   0.0000
@<TRIPOS>BOND
   1        1        2 1
   2        2        3 2
   3        3        4 1
   4        4        5 2
   5        4        6 1
   6        6        7 1
   7        7        8 2
   8        7        9 am
   9        9       10 1
  10       10       11 ar
  11       11       12 ar
  12       12       13 ar
  13       13       14 1
  14       14       15 2
  15       15       16 1
  16       16       17 1
  17       17       18 ar
  18       18       19 ar
  19       19       20 ar
  20       20       21 ar
  21       21       22 ar
  22       22       17 ar
  23       22       23 1
  24       15       24 1
  25       24       25 1
  26       25       13 ar
  27       25       26 ar
  28       26       10 ar
  29        6       27 2
  30       27       28 1
  31       28        2 1
  32       28       29 1
  33       29       30 ar
  34       30       31 ar
  35       31       32 ar
  36       32       33 ar
  37       33       34 ar
  38       34       29 ar
  39       34       35 1
  40       35       36 ar
  41       35       37 ar
  42       24       38 1
  43        1       39 1
  44        1       40 1
  45        1       41 1
  46        3       42 1
  47        9       43 1
  48       11       44 1
  49       12       45 1
  50       16       46 1
  51       16       47 1
  52       18       48 1
  53       19       49 1
  54       20       50 1
  55       21       51 1
  56       26       52 1
  57       30       53 1
  58       31       54 1
  59       32       55 1
  60       33       56 1

@<TRIPOS>MOLECULE

  56   60
SMALL
USER_CHARGES
@<TRIPOS>ATOM
   1 C1          -1.8177     5.9703     1.0006 C.3          1    LIG   0.0000
   2 C2          -1.0856     4.6376     1.0004 C.2          1    LIG   0.0000
   3 C3          -1.8302     3.4881     1.0003 C.2          1    LIG   0.0000
   4 C4          -1.1471     2.2438     0.9999 C.2          1    LIG   0.0000
   5 O5          -1.7803     1.1996     0.9997 O.2          1    LIG   0.0000
   6 C6           0.2746     2.2564     1.0000 C.2          1    LIG   0.0000
   7 C7           1.0000     1.0000     1.0000 C.2          1    LIG   0.0000
   8 O8           0.4000    -0.0392     1.0000 O.2          1    LIG   0.0000
   9 N9           2.3700     1.0000     1.0000 N.am         1    LIG   0.0000
  10 C10          3.0729    -0.2175     1.0000 C.ar         1    LIG   0.0000
  11 C11          2.3645    -1.4156     0.9995 C.ar         1    LIG   0.0000
  12 C12          3.0477    -2.6277     0.9988 C.ar         1    LIG   0.0000
  13 C13          4.4380    -2.6749     0.9981 C.ar         1    LIG   0.0000
  14 N14          5.3328    -3.7066     0.9992 N.2          1    LIG   0.0000
  15 C15          6.5449    -3.2019     0.9995 C.2          1    LIG   0.0000
  16 C16          7.8307    -4.0127     1.0002 C.3          1    LIG   0.0000
  17 C17          8.7493    -3.5039     2.0972 C.ar         1    LIG   0.0000
  18 C18          9.7993    -2.6475     1.7864 C.ar         1    LIG   0.0000
  19 C19         10.6398    -2.1839     2.7927 C.ar         1    LIG   0.0000
  20 C20         10.4299    -2.5773     4.1095 C.ar         1    LIG   0.0000
  21 C21          9.3805    -3.4346     4.4200 C.ar         1    LIG   0.0000
  22 C22          8.5397    -3.8978     3.4135 C.ar         1    LIG   0.0000
  23 F23          7.5371    -4.7182     3.7102 F            1    LIG   0.0000
  24 N24          6.4740    -1.8403     0.9994 N.pl3        1    LIG   0.0000
  25 C25          5.1511    -1.5036     0.9997 C.ar         1    LIG   0.0000
  26 C26          4.4652    -0.2903     1.0000 C.ar         1    LIG   0.0000
  27 N27          0.9212     3.4089     1.0000 N.2          1    LIG   0.0000
  28 N28          0.2848     4.5675     1.0003 N.pl3        1    LIG   0.0000
  29 C29          1.0457     5.7423     1.0005 C.ar         1    LIG   0.0000
  30 C30          0.7737     6.7470     1.9234 C.ar         1    LIG   0.0000
  31 C31          1.5344     7.9112     1.9140 C.ar         1    LIG   0.0000
  32 C32          2.5606     8.0641     0.9873 C.ar         1    LIG   0.0000
  33 C33          2.8363     7.0622     0.0627 C.ar         1    LIG   0.0000
  34 C34          2.0720     5.9004     0.0760 C.ar         1    LIG   0.0000
  35 N35          2.3395     4.8843    -0.8488 N.2          1    LIG   1.0000
  36 O36          2.4722     3.7423    -0.4715 O.co2        1    LIG   0.0000
  37 O37          2.4391     5.1502    -2.0353 O.co2        1    LIG  -1.0000
  38 H            7.2473    -1.2063     0.9992 H            1    LIG   0.0000
  39 H           -2.8045     5.8085     1.0007 H            1    LIG   0.0000
  40 H           -1.5650     6.4893     1.8172 H            1    LIG   0.0000
  41 H           -1.5651     6.4895     0.1842 H            1    LIG   0.0000
  42 H           -2.8295     3.5245     1.0003 H            1    LIG   0.0000
  43 H            2.8700     1.8660     1.0000 H            1    LIG   0.0000
  44 H            1.3646    -1.4052     0.9996 H            1    LIG   0.0000
  45 H            2.5287    -3.4825     0.9988 H            1    LIG   0.0000
  46 H            7.6174    -4.9758     1.1641 H            1    LIG   0.0000
  47 H            8.2850    -3.9180     0.1144 H            1    LIG   0.0000
  48 H            9.9503    -2.3647     0.8392 H            1    LIG   0.0000
  49 H           11.3950    -1.5677     2.5692 H            1    LIG   0.0000
  50 H           11.0337    -2.2436     4.8333 H            1    LIG   0.0000
  51 H            9.2301    -3.7183     5.3671 H            1    LIG   0.0000
  52 H            4.9915     0.5601     1.0002 H            1    LIG   0.0000
  53 H            0.0362     6.6328     2.5890 H            1    LIG   0.0000
  54 H            1.3436     8.6384     2.5733 H            1    LIG   0.0000
  55 H            3.1054     8.9026     0.9860 H            1    LIG   0.0000
  56 H            3.5741     7.1758    -0.6026 H            1    LIG   0.0000
@<TRIPOS>BOND
   1        1        2 1
   2        2        3 2
   3        3        4 1
   4        4        5 2
   5        4        6 1
   6        6        7 1
   7        7        8 2
   8        7        9 am
   9        9       10 1
  10       10       11 ar
  11       11       12 ar
  12       12       13 ar
  13       13       14 1
  14       14       15 2
  15       15       16 1
  16       16       17 1
  17       17       18 ar
  18       18       19 ar
  19       19       20 ar
  20       20       21 ar
  21       21       22 ar
  22       22       17 ar
  23       22       23 1
  24       15       24 1
  25       24       25 1
  26       25       13 ar
  27       25       26 ar
  28       26       10 ar
  29        6       27 2
  30       27       28 1
  31       28        2 1
  32       28       29 1
  33       29       30 ar
  34       30       31 ar
  35       31       32 ar
  36       32       33 ar
  37       33       34 ar
  38       34       29 ar
  39       34       35 1
  40       35       36 ar
  41       35       37 ar
  42       24       38 1
  43        1       39 1
  44        1       40 1
  45        1       41 1
  46        3       42 1
  47        9       43 1
  48       11       44 1
  49       12       45 1
  50       16       46 1
  51       16       47 1
  52       18       48 1
  53       19       49 1
  54       20       50 1
  55       21       51 1
  56       26       52 1
  57       30       53 1
  58       31       54 1
  59       32       55 1
  60       33       56 1

@<TRIPOS>MOLECULE

  56   60
SMALL
USER_CHARGES
@<TRIPOS>ATOM
   1 C1          -1.8504     5.9514     1.0444 C.3          1    LIG   0.0000
   2 C2          -1.0950     4.6322     1.0125 C.2          1    LIG   0.0000
   3 C3          -0.9667     3.9867    -0.1886 C.2          1    LIG   0.0000
   4 C4          -0.2614     2.7552    -0.2187 C.2          1    LIG   0.0000
   5 O5          -0.1284     2.1534    -1.2730 O.2          1    LIG   0.0000
   6 C6           0.2746     2.2564     1.0000 C.2          1    LIG   0.0000
   7 C7           1.0000     1.0000     1.0000 C.2          1    LIG   0.0000
   8 O8           0.4000    -0.0392     1.0000 O.2          1    LIG   0.0000
   9 N9           2.3700     1.0000     1.0000 N.am         1    LIG   0.0000
  10 C10          3.0729    -0.2175     1.0000 C.ar         1    LIG   0.0000
  11 C11          2.3645    -1.4156     0.9995 C.ar         1    LIG   0.0000
  12 C12          3.0477    -2.6277     0.9988 C.ar         1    LIG   0.0000
  13 C13          4.4380    -2.6749     0.9981 C.ar         1    LIG   0.0000
  14 N14          5.3328    -3.7066     0.9992 N.2          1    LIG   0.0000
  15 C15          6.5449    -3.2019     0.9995 C.2          1    LIG   0.0000
  16 C16          7.8307    -4.0127     1.0002 C.3          1    LIG   0.0000
  17 C17          8.7493    -3.5039     2.0972 C.ar         1    LIG   0.0000
  18 C18          9.7993    -2.6475     1.7864 C.ar         1    LIG   0.0000
  19 C19         10.6398    -2.1839     2.7927 C.ar         1    LIG   0.0000
  20 C20         10.4299    -2.5773     4.1095 C.ar         1    LIG   0.0000
  21 C21          9.3805    -3.4346     4.4200 C.ar         1    LIG   0.0000
  22 C22          8.5397    -3.8978     3.4135 C.ar         1    LIG   0.0000
  23 F23          7.5371    -4.7182     3.7102 F            1    LIG   0.0000
  24 N24          6.4740    -1.8403     0.9994 N.pl3        1    LIG   0.0000
  25 C25          5.1511    -1.5036     0.9997 C.ar         1    LIG   0.0000
  26 C26          4.4652    -0.2903     1.0000 C.ar         1    LIG   0.0000
  27 N27          0.1081     2.9394     2.1189 N.2          1    LIG   0.0000
  28 N28         -0.5487     4.0862     2.1468 N.pl3        1    LIG   0.0000
  29 C29         -0.6799     4.7460     3.3741 C.ar         1    LIG   0.0000
  30 C30          0.4540     5.1469     4.0731 C.ar         1    LIG   0.0000
  31 C31          0.3128     5.8002     5.2927 C.ar         1    LIG   0.0000
  32 C32         -0.9561     6.0506     5.8047 C.ar         1    LIG   0.0000
  33 C33         -2.0929     5.6517     5.1095 C.ar         1    LIG   0.0000
  34 C34         -1.9459     4.9981     3.8907 C.ar         1    LIG   0.0000
  35 N35         -3.0818     4.5919     3.1808 N.2          1    LIG   1.0000
  36 O36         -2.9608     4.0228     2.1198 O.co2        1    LIG   0.0000
  37 O37         -4.1939     4.8118     3.6317 O.co2        1    LIG  -1.0000
  38 H            7.2473    -1.2063     0.9992 H            1    LIG   0.0000
  39 H           -2.1678     6.1761     0.1231 H            1    LIG   0.0000
  40 H           -2.6364     5.8707     1.6573 H            1    LIG   0.0000
  41 H           -1.2438     6.6750     1.3737 H            1    LIG   0.0000
  42 H           -1.3597     4.3731    -1.0230 H            1    LIG   0.0000
  43 H            2.8700     1.8660     1.0000 H            1    LIG   0.0000
  44 H            1.3646    -1.4052     0.9996 H            1    LIG   0.0000
  45 H            2.5287    -3.4825     0.9988 H            1    LIG   0.0000
  46 H            7.6174    -4.9758     1.1641 H            1    LIG   0.0000
  47 H            8.2850    -3.9180     0.1144 H            1    LIG   0.0000
  48 H            9.9503    -2.3647     0.8392 H            1    LIG   0.0000
  49 H           11.3950    -1.5677     2.5692 H            1    LIG   0.0000
  50 H           11.0337    -2.2436     4.8333 H            1    LIG   0.0000
  51 H            9.2301    -3.7183     5.3671 H            1    LIG   0.0000
  52 H            4.9915     0.5601     1.0002 H            1    LIG   0.0000
  53 H            1.3646     4.9666     3.7010 H            1    LIG   0.0000
  54 H            1.1234     6.0899     5.8015 H            1    LIG   0.0000
  55 H           -1.0520     6.5220     6.6814 H            1    LIG   0.0000
  56 H           -3.0036     5.8325     5.4809 H            1    LIG   0.0000
@<TRIPOS>BOND
   1        1        2 1
   2        2        3 2
   3        3        4 1
   4        4        5 2
   5        4        6 1
   6        6        7 1
   7        7        8 2
   8        7        9 am
   9        9       10 1
  10       10       11 ar
  11       11       12 ar
  12       12       13 ar
  13       13       14 1
  14       14       15 2
  15       15       16 1
  16       16       17 1
  17       17       18 ar
  18       18       19 ar
  19       19       20 ar
  20       20       21 ar
  21       21       22 ar
  22       22       17 ar
  23       22       23 1
  24       15       24 1
  25       24       25 1
  26       25       13 ar
  27       25       26 ar
  28       26       10 ar
  29        6       27 2
  30       27       28 1
  31       28        2 1
  32       28       29 1
  33       29       30 ar
  34       30       31 ar
  35       31       32 ar
  36       32       33 ar
  37       33       34 ar
  38       34       29 ar
  39       34       35 1
  40       35       36 ar
  41       35       37 ar
  42       24       38 1
  43        1       39 1
  44        1       40 1
  45        1       41 1
  46        3       42 1
  47        9       43 1
  48       11       44 1
  49       12       45 1
  50       16       46 1
  51       16       47 1
  52       18       48 1
  53       19       49 1
  54       20       50 1
  55       21       51 1
  56       26       52 1
  57       30       53 1
  58       31       54 1
  59       32       55 1
  60       33       56 1

@<TRIPOS>MOLECULE

  56   60
SMALL
USER_CHARGES
@<TRIPOS>ATOM
   1 C1          -1.8955     5.9254     0.9994 C.3          1    LIG   0.0000
   2 C2          -1.1075     4.6250     0.9996 C.2          1    LIG   0.0000
   3 C3           0.2603     4.6951     0.9997 C.2          1    LIG   0.0000
   4 C4           0.9964     3.4813     1.0001 C.2          1    LIG   0.0000
   5 O5           2.2173     3.5076     1.0003 O.2          1    LIG   0.0000
   6 C6           0.2746     2.2564     1.0000 C.2          1    LIG   0.0000
   7 C7           1.0000     1.0000     1.0000 C.2          1    LIG   0.0000
   8 O8           0.4000    -0.0392     1.0000 O.2          1    LIG   0.0000
   9 N9           2.3700     1.0000     1.0000 N.am         1    LIG   0.0000
  10 C10          3.0729    -0.2175     1.0000 C.ar         1    LIG   0.0000
  11 C11          2.3645    -1.4156     0.9995 C.ar         1    LIG   0.0000
  12 C12          3.0477    -2.6277     0.9988 C.ar         1    LIG   0.0000
  13 C13          4.4380    -2.6749     0.9981 C.ar         1    LIG   0.0000
  14 N14          5.3328    -3.7066     0.9992 N.2          1    LIG   0.0000
  15 C15          6.5449    -3.2019     0.9995 C.2          1    LIG   0.0000
  16 C16          7.8307    -4.0127     1.0002 C.3          1    LIG   0.0000
  17 C17          9.0225    -3.0717     1.0004 C.ar         1    LIG   0.0000
  18 C18          9.6978    -2.8014     2.1852 C.ar         1    LIG   0.0000
  19 C19         10.7882    -1.9383     2.1828 C.ar         1    LIG   0.0000
  20 C20         11.2027    -1.3458     0.9955 C.ar         1    LIG   0.0000
  21 C21         10.5268    -1.6152    -0.1890 C.ar         1    LIG   0.0000
  22 C22          9.4365    -2.4788    -0.1866 C.ar         1    LIG   0.0000
  23 F23          8.7896    -2.7357    -1.3187 F            1    LIG   0.0000
  24 N24          6.4740    -1.8403     0.9994 N.pl3        1    LIG   0.0000
  25 C25          5.1511    -1.5036     0.9997 C.ar         1    LIG   0.0000
  26 C26          4.4652    -0.2903     1.0000 C.ar         1    LIG   0.0000
  27 N27         -1.0467     2.2727     1.0000 N.2          1    LIG   0.0000
  28 N28         -1.7320     3.4031     0.9997 N.pl3        1    LIG   0.0000
  29 C29         -3.1298     3.3316     0.9995 C.ar         1    LIG   0.0000
  30 C30         -3.7935     2.6946    -0.0439 C.ar         1    LIG   0.0000
  31 C31         -5.1828     2.6306    -0.0355 C.ar         1    LIG   0.0000
  32 C32         -5.8989     3.1994     1.0126 C.ar         1    LIG   0.0000
  33 C33         -5.2396     3.8373     2.0582 C.ar         1    LIG   0.0000
  34 C34         -3.8503     3.8991     2.0444 C.ar         1    LIG   0.0000
  35 N35         -3.1747     4.5377     3.0908 N.2          1    LIG   1.0000
  36 O36         -1.9660     4.5949     3.0848 O.co2        1    LIG   0.0000
  37 O37         -3.8044     5.0366     4.0089 O.co2        1    LIG  -1.0000
  38 H            7.2473    -1.2063     0.9992 H            1    LIG   0.0000
  39 H           -1.2620     6.6991     0.9993 H            1    LIG   0.0000
  40 H           -2.4714     5.9660     0.1828 H            1    LIG   0.0000
  41 H           -2.4715     5.9662     1.8158 H            1    LIG   0.0000
  42 H            0.7285     5.5787     0.9997 H            1    LIG   0.0000
  43 H            2.8700     1.8660     1.0000 H            1    LIG   0.0000
  44 H            1.3646    -1.4052     0.9996 H            1    LIG   0.0000
  45 H            2.5287    -3.4825     0.9988 H            1    LIG   0.0000
  46 H            7.8609    -4.5890     1.8169 H            1    LIG   0.0000
  47 H            7.8615    -4.5895     0.1839 H            1    LIG   0.0000
  48 H            9.3994    -3.2276     3.0392 H            1    LIG   0.0000
  49 H           11.2741    -1.7440     3.0350 H            1    LIG   0.0000
  50 H           11.9872    -0.7256     0.9935 H            1    LIG   0.0000
  51 H           10.8244    -1.1882    -1.0428 H            1    LIG   0.0000
  52 H            4.9915     0.5601     1.0002 H            1    LIG   0.0000
  53 H           -3.2753     2.2854    -0.7949 H            1    LIG   0.0000
  54 H           -5.6669     2.1757    -0.7830 H            1    LIG   0.0000
  55 H           -6.8977     3.1492     1.0145 H            1    LIG   0.0000
  56 H           -5.7576     4.2460     2.8096 H            1    LIG   0.0000
@<TRIPOS>BOND
   1        1        2 1
   2        2        3 2
   3        3        4 1
   4        4        5 2
   5        4        6 1
   6        6        7 1
   7        7        8 2
   8        7        9 am
   9        9       10 1
  10       10       11 ar
  11       11       12 ar
  12       12       13 ar
  13       13       14 1
  14       14       15 2
  15       15       16 1
  16       16       17 1
  17       17       18 ar
  18       18       19 ar
  19       19       20 ar
  20       20       21 ar
  21       21       22 ar
  22       22       17 ar
  23       22       23 1
  24       15       24 1
  25       24       25 1
  26       25       13 ar
  27       25       26 ar
  28       26       10 ar
  29        6       27 2
  30       27       28 1
  31       28        2 1
  32       28       29 1
  33       29       30 ar
  34       30       31 ar
  35       31       32 ar
  36       32       33 ar
  37       33       34 ar
  38       34       29 ar
  39       34       35 1
  40       35       36 ar
  41       35       37 ar
  42       24       38 1
  43        1       39 1
  44        1       40 1
  45        1       41 1
  46        3       42 1
  47        9       43 1
  48       11       44 1
  49       12       45 1
  50       16       46 1
  51       16       47 1
  52       18       48 1
  53       19       49 1
  54       20       50 1
  55       21       51 1
  56       26       52 1
  57       30       53 1
  58       31       54 1
  59       32       55 1
  60       33       56 1

@<TRIPOS>MOLECULE

  56   60
SMALL
USER_CHARGES
@<TRIPOS>ATOM
   1 C1          -1.8756     5.9369     0.9608 C.3          1    LIG   0.0000
   2 C2          -1.1017     4.6283     0.9889 C.2          1    LIG   0.0000
   3 C3          -0.2621     4.3934     2.0451 C.2          1    LIG   0.0000
   4 C4           0.4605     3.1719     2.0718 C.2          1    LIG   0.0000
   5 O5           1.2177     2.9305     2.9989 O.2          1    LIG   0.0000
   6 C6           0.2746     2.2564     1.0000 C.2          1    LIG   0.0000
   7 C7           1.0000     1.0000     1.0000 C.2          1    LIG   0.0000
   8 O8           0.4000    -0.0392     1.0000 O.2          1    LIG   0.0000
   9 N9           2.3700     1.0000     1.0000 N.am         1    LIG   0.0000
  10 C10          3.0729    -0.2175     1.0000 C.ar         1    LIG   0.0000
  11 C11          2.3645    -1.4156     0.9995 C.ar         1    LIG   0.0000
  12 C12          3.0477    -2.6277     0.9988 C.ar         1    LIG   0.0000
  13 C13          4.4380    -2.6749     0.9981 C.ar         1    LIG   0.0000
  14 N14          5.3328    -3.7066     0.9992 N.2          1    LIG   0.0000
  15 C15          6.5449    -3.2019     0.9995 C.2          1    LIG   0.0000
  16 C16          7.8307    -4.0127     1.0002 C.3          1    LIG   0.0000
  17 C17          9.0225    -3.0717     1.0004 C.ar         1    LIG   0.0000
  18 C18          9.6978    -2.8014     2.1852 C.ar         1    LIG   0.0000
  19 C19         10.7882    -1.9383     2.1828 C.ar         1    LIG   0.0000
  20 C20         11.2027    -1.3458     0.9955 C.ar         1    LIG   0.0000
  21 C21         10.5268    -1.6152    -0.1890 C.ar         1    LIG   0.0000
  22 C22          9.4365    -2.4788    -0.1866 C.ar         1    LIG   0.0000
  23 F23          8.7896    -2.7357    -1.3187 F            1    LIG   0.0000
  24 N24          6.4740    -1.8403     0.9994 N.pl3        1    LIG   0.0000
  25 C25          5.1511    -1.5036     0.9997 C.ar         1    LIG   0.0000
  26 C26          4.4652    -0.2903     1.0000 C.ar         1    LIG   0.0000
  27 N27         -0.5547     2.5567     0.0160 N.2          1    LIG   0.0000
  28 N28         -1.2275     3.6943    -0.0086 N.pl3        1    LIG   0.0000
  29 C29         -2.0856     3.9345    -1.0880 C.ar         1    LIG   0.0000
  30 C30         -3.3963     4.3394    -0.8578 C.ar         1    LIG   0.0000
  31 C31         -4.2414     4.5737    -1.9373 C.ar         1    LIG   0.0000
  32 C32         -3.7734     4.4049    -3.2363 C.ar         1    LIG   0.0000
  33 C33         -2.4636     4.0003    -3.4714 C.ar         1    LIG   0.0000
  34 C34         -1.6230     3.7666    -2.3883 C.ar         1    LIG   0.0000
  35 N35         -0.3025     3.3595    -2.6112 N.2          1    LIG   1.0000
  36 O36          0.4339     3.1546    -1.6732 O.co2        1    LIG   0.0000
  37 O37          0.1060     3.2113    -3.7512 O.co2        1    LIG  -1.0000
  38 H            7.2473    -1.2063     0.9992 H            1    LIG   0.0000
  39 H           -1.6471     6.4767     1.7709 H            1    LIG   0.0000
  40 H           -1.6319     6.4507     0.1382 H            1    LIG   0.0000
  41 H           -2.8568     5.7438     0.9547 H            1    LIG   0.0000
  42 H           -0.1607     5.0653     2.7789 H            1    LIG   0.0000
  43 H            2.8700     1.8660     1.0000 H            1    LIG   0.0000
  44 H            1.3646    -1.4052     0.9996 H            1    LIG   0.0000
  45 H            2.5287    -3.4825     0.9988 H            1    LIG   0.0000
  46 H            7.8609    -4.5890     1.8169 H            1    LIG   0.0000
  47 H            7.8615    -4.5895     0.1839 H            1    LIG   0.0000
  48 H            9.3994    -3.2276     3.0392 H            1    LIG   0.0000
  49 H           11.2741    -1.7440     3.0350 H            1    LIG   0.0000
  50 H           11.9872    -0.7256     0.9935 H            1    LIG   0.0000
  51 H           10.8244    -1.1882    -1.0428 H            1    LIG   0.0000
  52 H            4.9915     0.5601     1.0002 H            1    LIG   0.0000
  53 H           -3.7287     4.4613     0.0774 H            1    LIG   0.0000
  54 H           -5.1854     4.8634    -1.7795 H            1    LIG   0.0000
  55 H           -4.3848     4.5762    -4.0089 H            1    LIG   0.0000
  56 H           -2.1308     3.8790    -4.4065 H            1    LIG   0.0000
@<TRIPOS>BOND
   1        1        2 1
   2        2        3 2
   3        3        4 1
   4        4        5 2
   5        4        6 1
   6        6        7 1
   7        7        8 2
   8        7        9 am
   9        9       10 1
  10       10       11 ar
  11       11       12 ar
  12       12       13 ar
  13       13       14 1
  14       14       15 2
  15       15       16 1
  16       16       17 1
  17       17       18 ar
  18       18       19 ar
  19       19       20 ar
  20       20       21 ar
  21       21       22 ar
  22       22       17 ar
  23       22       23 1
  24       15       24 1
  25       24       25 1
  26       25       13 ar
  27       25       26 ar
  28       26       10 ar
  29        6       27 2
  30       27       28 1
  31       28        2 1
  32       28       29 1
  33       29       30 ar
  34       30       31 ar
  35       31       32 ar
  36       32       33 ar
  37       33       34 ar
  38       34       29 ar
  39       34       35 1
  40       35       36 ar
  41       35       37 ar
  42       24       38 1
  43        1       39 1
  44        1       40 1
  45        1       41 1
  46        3       42 1
  47        9       43 1
  48       11       44 1
  49       12       45 1
  50       16       46 1
  51       16       47 1
  52       18       48 1
  53       19       49 1
  54       20       50 1
  55       21       51 1
  56       26       52 1
  57       30       53 1
  58       31       54 1
  59       32       55 1
  60       33       56 1

@<TRIPOS>MOLECULE

  56   60
SMALL
USER_CHARGES
@<TRIPOS>ATOM
   1 C1          -1.8934     5.9266     1.0148 C.3          1    LIG   0.0000
   2 C2          -1.1069     4.6253     1.0039 C.2          1    LIG   0.0000
   3 C3           0.1972     4.6586     0.5870 C.2          1    LIG   0.0000
   4 C4           0.9318     3.4440     0.5768 C.2          1    LIG   0.0000
   5 O5           2.0968     3.4381     0.2109 O.2          1    LIG   0.0000
   6 C6           0.2746     2.2564     1.0000 C.2          1    LIG   0.0000
   7 C7           1.0000     1.0000     1.0000 C.2          1    LIG   0.0000
   8 O8           0.4000    -0.0392     1.0000 O.2          1    LIG   0.0000
   9 N9           2.3700     1.0000     1.0000 N.am         1    LIG   0.0000
  10 C10          3.0729    -0.2175     1.0000 C.ar         1    LIG   0.0000
  11 C11          2.3645    -1.4156     0.9995 C.ar         1    LIG   0.0000
  12 C12          3.0477    -2.6277     0.9988 C.ar         1    LIG   0.0000
  13 C13          4.4380    -2.6749     0.9981 C.ar         1    LIG   0.0000
  14 N14          5.3328    -3.7066     0.9992 N.2          1    LIG   0.0000
  15 C15          6.5449    -3.2019     0.9995 C.2          1    LIG   0.0000
  16 C16          7.8307    -4.0127     1.0002 C.3          1    LIG   0.0000
  17 C17          9.0225    -3.0717     1.0004 C.ar         1    LIG   0.0000
  18 C18          9.7011    -2.8050    -0.1833 C.ar         1    LIG   0.0000
  19 C19         10.7929    -1.9438    -0.1801 C.ar         1    LIG   0.0000
  20 C20         11.2058    -1.3496     1.0070 C.ar         1    LIG   0.0000
  21 C21         10.5278    -1.6171     2.1908 C.ar         1    LIG   0.0000
  22 C22          9.4355    -2.4781     2.1874 C.ar         1    LIG   0.0000
  23 F23          8.7880    -2.7347     3.3193 F            1    LIG   0.0000
  24 N24          6.4740    -1.8403     0.9994 N.pl3        1    LIG   0.0000
  25 C25          5.1511    -1.5036     0.9997 C.ar         1    LIG   0.0000
  26 C26          4.4652    -0.2903     1.0000 C.ar         1    LIG   0.0000
  27 N27         -0.9874     2.3069     1.3886 N.2          1    LIG   0.0000
  28 N28         -1.6712     3.4382     1.3980 N.pl3        1    LIG   0.0000
  29 C29         -3.0040     3.4042     1.8240 C.ar         1    LIG   0.0000
  30 C30         -3.8730     4.4319     1.4725 C.ar         1    LIG   0.0000
  31 C31         -5.1950     4.3896     1.9025 C.ar         1    LIG   0.0000
  32 C32         -5.6407     3.3235     2.6769 C.ar         1    LIG   0.0000
  33 C33         -4.7755     2.2935     3.0308 C.ar         1    LIG   0.0000
  34 C34         -3.4543     2.3412     2.5988 C.ar         1    LIG   0.0000
  35 N35         -2.5736     1.3108     2.9477 N.2          1    LIG   1.0000
  36 O36         -1.4946     1.5738     3.4280 O.co2        1    LIG   0.0000
  37 O37         -2.8938     0.1475     2.7674 O.co2        1    LIG  -1.0000
  38 H            7.2473    -1.2063     0.9992 H            1    LIG   0.0000
  39 H           -1.3087     6.6721     0.6947 H            1    LIG   0.0000
  40 H           -2.6861     5.8420     0.4111 H            1    LIG   0.0000
  41 H           -2.2025     6.1215     1.9456 H            1    LIG   0.0000
  42 H            0.6211     5.5167     0.2971 H            1    LIG   0.0000
  43 H            2.8700     1.8660     1.0000 H            1    LIG   0.0000
  44 H            1.3646    -1.4052     0.9996 H            1    LIG   0.0000
  45 H            2.5287    -3.4825     0.9988 H            1    LIG   0.0000
  46 H            7.8609    -4.5890     1.8169 H            1    LIG   0.0000
  47 H            7.8615    -4.5895     0.1839 H            1    LIG   0.0000
  48 H            9.4041    -3.2326    -1.0370 H            1    LIG   0.0000
  49 H           11.2809    -1.7518    -1.0316 H            1    LIG   0.0000
  50 H           11.9905    -0.7298     1.0093 H            1    LIG   0.0000
  51 H           10.8255    -1.1904     3.0448 H            1    LIG   0.0000
  52 H            4.9915     0.5601     1.0002 H            1    LIG   0.0000
  53 H           -3.5495     5.1960     0.9143 H            1    LIG   0.0000
  54 H           -5.8250     5.1257     1.6550 H            1    LIG   0.0000
  55 H           -6.5926     3.2972     2.9821 H            1    LIG   0.0000
  56 H           -5.0990     1.5291     3.5884 H            1    LIG   0.0000
@<TRIPOS>BOND
   1        1        2 1
   2        2        3 2
   3        3        4 1
   4        4        5 2
   5        4        6 1
   6        6        7 1
   7        7        8 2
   8        7        9 am
   9        9       10 1
  10       10       11 ar
  11       11       12 ar
  12       12       13 ar
  13       13       14 1
  14       14       15 2
  15       15       16 1
  16       16       17 1
  17       17       18 ar
  18       18       19 ar
  19       19       20 ar
  20       20       21 ar
  21       21       22 ar
  22       22       17 ar
  23       22       23 1
  24       15       24 1
  25       24       25 1
  26       25       13 ar
  27       25       26 ar
  28       26       10 ar
  29        6       27 2
  30       27       28 1
  31       28        2 1
  32       28       29 1
  33       29       30 ar
  34       30       31 ar
  35       31       32 ar
  36       32       33 ar
  37       33       34 ar
  38       34       29 ar
  39       34       35 1
  40       35       36 ar
  41       35       37 ar
  42       24       38 1
  43        1       39 1
  44        1       40 1
  45        1       41 1
  46        3       42 1
  47        9       43 1
  48       11       44 1
  49       12       45 1
  50       16       46 1
  51       16       47 1
  52       18       48 1
  53       19       49 1
  54       20       50 1
  55       21       51 1
  56       26       52 1
  57       30       53 1
  58       31       54 1
  59       32       55 1
  60       33       56 1

@<TRIPOS>MOLECULE

  56   60
SMALL
USER_CHARGES
@<TRIPOS>ATOM
   1 C1          -1.8177     5.9703     1.0006 C.3          1    LIG   0.0000
   2 C2          -1.0856     4.6376     1.0004 C.2          1    LIG   0.0000
   3 C3          -1.8302     3.4881     1.0003 C.2          1    LIG   0.0000
   4 C4          -1.1471     2.2438     0.9999 C.2          1    LIG   0.0000
   5 O5          -1.7803     1.1996     0.9997 O.2          1    LIG   0.0000
   6 C6           0.2746     2.2564     1.0000 C.2          1    LIG   0.0000
   7 C7           1.0000     1.0000     1.0000 C.2          1    LIG   0.0000
   8 O8           0.4000    -0.0392     1.0000 O.2          1    LIG   0.0000
   9 N9           2.3700     1.0000     1.0000 N.am         1    LIG   0.0000
  10 C10          3.0729    -0.2175     1.0000 C.ar         1    LIG   0.0000
  11 C11          2.3645    -1.4156     0.9995 C.ar         1    LIG   0.0000
  12 C12          3.0477    -2.6277     0.9988 C.ar         1    LIG   0.0000
  13 C13          4.4380    -2.6749     0.9981 C.ar         1    LIG   0.0000
  14 N14          5.3328    -3.7066     0.9992 N.2          1    LIG   0.0000
  15 C15          6.5449    -3.2019     0.9995 C.2          1    LIG   0.0000
  16 C16          7.8307    -4.0127     1.0002 C.3          1    LIG   0.0000
  17 C17          8.2594    -4.2831    -0.4312 C.ar         1    LIG   0.0000
  18 C18          9.2532    -3.5093    -1.0198 C.ar         1    LIG   0.0000
  19 C19          9.6432    -3.7583    -2.3312 C.ar         1    LIG   0.0000
  20 C20          9.0389    -4.7809    -3.0536 C.ar         1    LIG   0.0000
  21 C21          8.0444    -5.5539    -2.4653 C.ar         1    LIG   0.0000
  22 C22          7.6548    -5.3051    -1.1535 C.ar         1    LIG   0.0000
  23 F23          6.7034    -6.0434    -0.5913 F            1    LIG   0.0000
  24 N24          6.4740    -1.8403     0.9994 N.pl3        1    LIG   0.0000
  25 C25          5.1511    -1.5036     0.9997 C.ar         1    LIG   0.0000
  26 C26          4.4652    -0.2903     1.0000 C.ar         1    LIG   0.0000
  27 N27          0.9212     3.4089     1.0000 N.2          1    LIG   0.0000
  28 N28          0.2848     4.5675     1.0003 N.pl3        1    LIG   0.0000
  29 C29          1.0457     5.7423     1.0005 C.ar         1    LIG   0.0000
  30 C30          1.9292     5.9986     2.0439 C.ar         1    LIG   0.0000
  31 C31          2.6792     7.1697     2.0355 C.ar         1    LIG   0.0000
  32 C32          2.5447     8.0743     0.9874 C.ar         1    LIG   0.0000
  33 C33          1.6626     7.8223    -0.0582 C.ar         1    LIG   0.0000
  34 C34          0.9144     6.6500    -0.0444 C.ar         1    LIG   0.0000
  35 N35          0.0236     6.3842    -1.0908 N.2          1    LIG   1.0000
  36 O36         -0.6303     5.3661    -1.0848 O.co2        1    LIG   0.0000
  37 O37         -0.0936     7.1791    -2.0089 O.co2        1    LIG  -1.0000
  38 H            7.2473    -1.2063     0.9992 H            1    LIG   0.0000
  39 H           -2.8045     5.8085     1.0007 H            1    LIG   0.0000
  40 H           -1.5650     6.4893     1.8172 H            1    LIG   0.0000
  41 H           -1.5651     6.4895     0.1842 H            1    LIG   0.0000
  42 H           -2.8295     3.5245     1.0003 H            1    LIG   0.0000
  43 H            2.8700     1.8660     1.0000 H            1    LIG   0.0000
  44 H            1.3646    -1.4052     0.9996 H            1    LIG   0.0000
  45 H            2.5287    -3.4825     0.9988 H            1    LIG   0.0000
  46 H            8.5480    -3.4997     1.4718 H            1    LIG   0.0000
  47 H            7.6770    -4.8810     1.4718 H            1    LIG   0.0000
  48 H            9.6876    -2.7737    -0.5001 H            1    LIG   0.0000
  49 H           10.3581    -3.2019    -2.7546 H            1    LIG   0.0000
  50 H            9.3196    -4.9605    -3.9964 H            1    LIG   0.0000
  51 H            7.6091    -6.2889    -2.9853 H            1    LIG   0.0000
  52 H            4.9915     0.5601     1.0002 H            1    LIG   0.0000
  53 H            2.0244     5.3452     2.7949 H            1    LIG   0.0000
  54 H            3.3152     7.3615     2.7830 H            1    LIG   0.0000
  55 H            3.0876     8.9142     0.9855 H            1    LIG   0.0000
  56 H            1.5677     8.4753    -0.8096 H            1    LIG   0.0000
@<TRIPOS>BOND
   1        1        2 1
   2        2        3 2
   3        3        4 1
   4        4        5 2
   5        4        6 1
   6        6        7 1
   7        7        8 2
   8        7        9 am
   9        9       10 1
  10       10       11 ar
  11       11       12 ar
  12       12       13 ar
  13       13       14 1
  14       14       15 2
  15       15       16 1
  16       16       17 1
  17       17       18 ar
  18       18       19 ar
  19       19       20 ar
  20       20       21 ar
  21       21       22 ar
  22       22       17 ar
  23       22       23 1
  24       15       24 1
  25       24       25 1
  26       25       13 ar
  27       25       26 ar
  28       26       10 ar
  29        6       27 2
  30       27       28 1
  31       28        2 1
  32       28       29 1
  33       29       30 ar
  34       30       31 ar
  35       31       32 ar
  36       32       33 ar
  37       33       34 ar
  38       34       29 ar
  39       34       35 1
  40       35       36 ar
  41       35       37 ar
  42       24       38 1
  43        1       39 1
  44        1       40 1
  45        1       41 1
  46        3       42 1
  47        9       43 1
  48       11       44 1
  49       12       45 1
  50       16       46 1
  51       16       47 1
  52       18       48 1
  53       19       49 1
  54       20       50 1
  55       21       51 1
  56       26       52 1
  57       30       53 1
  58       31       54 1
  59       32       55 1
  60       33       56 1

@<TRIPOS>MOLECULE

  56   60
SMALL
USER_CHARGES
@<TRIPOS>ATOM
   1 C1          -1.8628     5.9442     0.9556 C.3          1    LIG   0.0000
   2 C2          -1.0981     4.6304     0.9875 C.2          1    LIG   0.0000
   3 C3          -0.6032     4.1965     2.1886 C.2          1    LIG   0.0000
   4 C4           0.1107     2.9700     2.2187 C.2          1    LIG   0.0000
   5 O5           0.5653     2.5539     3.2730 O.2          1    LIG   0.0000
   6 C6           0.2746     2.2564     1.0000 C.2          1    LIG   0.0000
   7 C7           1.0000     1.0000     1.0000 C.2          1    LIG   0.0000
   8 O8           0.4000    -0.0392     1.0000 O.2          1    LIG   0.0000
   9 N9           2.3700     1.0000     1.0000 N.am         1    LIG   0.0000
  10 C10          3.0729    -0.2175     1.0000 C.ar         1    LIG   0.0000
  11 C11          2.3645    -1.4156     0.9995 C.ar         1    LIG   0.0000
  12 C12          3.0477    -2.6277     0.9988 C.ar         1    LIG   0.0000
  13 C13          4.4380    -2.6749     0.9981 C.ar         1    LIG   0.0000
  14 N14          5.3328    -3.7066     0.9992 N.2          1    LIG   0.0000
  15 C15          6.5449    -3.2019     0.9995 C.2          1    LIG   0.0000
  16 C16          7.8307    -4.0127     1.0002 C.3          1    LIG   0.0000
  17 C17          8.2594    -4.2831    -0.4312 C.ar         1    LIG   0.0000
  18 C18          7.9929    -5.5147    -1.0185 C.ar         1    LIG   0.0000
  19 C19          8.3876    -5.7601    -2.3291 C.ar         1    LIG   0.0000
  20 C20          9.0489    -4.7737    -3.0519 C.ar         1    LIG   0.0000
  21 C21          9.3163    -3.5425    -2.4642 C.ar         1    LIG   0.0000
  22 C22          8.9211    -3.2970    -1.1535 C.ar         1    LIG   0.0000
  23 F23          9.1776    -2.1205    -0.5913 F            1    LIG   0.0000
  24 N24          6.4740    -1.8403     0.9994 N.pl3        1    LIG   0.0000
  25 C25          5.1511    -1.5036     0.9997 C.ar         1    LIG   0.0000
  26 C26          4.4652    -0.2903     1.0000 C.ar         1    LIG   0.0000
  27 N27         -0.2336     2.7421    -0.1189 N.2          1    LIG   0.0000
  28 N28         -0.8984     3.8844    -0.1468 N.pl3        1    LIG   0.0000
  29 C29         -1.4042     4.3279    -1.3741 C.ar         1    LIG   0.0000
  30 C30         -0.5387     4.5737    -2.4351 C.ar         1    LIG   0.0000
  31 C31         -1.0512     5.0160    -3.6500 C.ar         1    LIG   0.0000
  32 C32         -2.4210     5.2074    -3.7987 C.ar         1    LIG   0.0000
  33 C33         -3.2903     4.9628    -2.7407 C.ar         1    LIG   0.0000
  34 C34         -2.7723     4.5215    -1.5278 C.ar         1    LIG   0.0000
  35 N35         -3.6364     4.2711    -0.4554 N.2          1    LIG   1.0000
  36 O36         -3.1922     3.8870     0.6025 O.co2        1    LIG   0.0000
  37 O37         -4.8374     4.4402    -0.5874 O.co2        1    LIG  -1.0000
  38 H            7.2473    -1.2063     0.9992 H            1    LIG   0.0000
  39 H           -1.8987     6.3315     1.8769 H            1    LIG   0.0000
  40 H           -1.3999     6.5846     0.3427 H            1    LIG   0.0000
  41 H           -2.7928     5.7807     0.6263 H            1    LIG   0.0000
  42 H           -0.7413     4.7301     3.0230 H            1    LIG   0.0000
  43 H            2.8700     1.8660     1.0000 H            1    LIG   0.0000
  44 H            1.3646    -1.4052     0.9996 H            1    LIG   0.0000
  45 H            2.5287    -3.4825     0.9988 H            1    LIG   0.0000
  46 H            8.5480    -3.4997     1.4718 H            1    LIG   0.0000
  47 H            7.6770    -4.8810     1.4718 H            1    LIG   0.0000
  48 H            7.5174    -6.2241    -0.4984 H            1    LIG   0.0000
  49 H            8.1958    -6.6459    -2.7516 H            1    LIG   0.0000
  50 H            9.3323    -4.9498    -3.9946 H            1    LIG   0.0000
  51 H            9.7929    -2.8334    -2.9839 H            1    LIG   0.0000
  52 H            4.9915     0.5601     1.0002 H            1    LIG   0.0000
  53 H            0.4452     4.4335    -2.3250 H            1    LIG   0.0000
  54 H           -0.4350     5.1963    -4.4166 H            1    LIG   0.0000
  55 H           -2.7844     5.5240    -4.6749 H            1    LIG   0.0000
  56 H           -4.2743     5.1024    -2.8508 H            1    LIG   0.0000
@<TRIPOS>BOND
   1        1        2 1
   2        2        3 2
   3        3        4 1
   4        4        5 2
   5        4        6 1
   6        6        7 1
   7        7        8 2
   8        7        9 am
   9        9       10 1
  10       10       11 ar
  11       11       12 ar
  12       12       13 ar
  13       13       14 1
  14       14       15 2
  15       15       16 1
  16       16       17 1
  17       17       18 ar
  18       18       19 ar
  19       19       20 ar
  20       20       21 ar
  21       21       22 ar
  22       22       17 ar
  23       22       23 1
  24       15       24 1
  25       24       25 1
  26       25       13 ar
  27       25       26 ar
  28       26       10 ar
  29        6       27 2
  30       27       28 1
  31       28        2 1
  32       28       29 1
  33       29       30 ar
  34       30       31 ar
  35       31       32 ar
  36       32       33 ar
  37       33       34 ar
  38       34       29 ar
  39       34       35 1
  40       35       36 ar
  41       35       37 ar
  42       24       38 1
  43        1       39 1
  44        1       40 1
  45        1       41 1
  46        3       42 1
  47        9       43 1
  48       11       44 1
  49       12       45 1
  50       16       46 1
  51       16       47 1
  52       18       48 1
  53       19       49 1
  54       20       50 1
  55       21       51 1
  56       26       52 1
  57       30       53 1
  58       31       54 1
  59       32       55 1
  60       33       56 1

@<TRIPOS>MOLECULE

  56   60
SMALL
USER_CHARGES
@<TRIPOS>ATOM
   1 C1          -1.8955     5.9254     0.9994 C.3          1    LIG   0.0000
   2 C2          -1.1075     4.6250     0.9996 C.2          1    LIG   0.0000
   3 C3           0.2603     4.6951     0.9997 C.2          1    LIG   0.0000
   4 C4           0.9964     3.4813     1.0001 C.2          1    LIG   0.0000
   5 O5           2.2173     3.5076     1.0003 O.2          1    LIG   0.0000
   6 C6           0.2746     2.2564     1.0000 C.2          1    LIG   0.0000
   7 C7           1.0000     1.0000     1.0000 C.2          1    LIG   0.0000
   8 O8           0.4000    -0.0392     1.0000 O.2          1    LIG   0.0000
   9 N9           2.3700     1.0000     1.0000 N.am         1    LIG   0.0000
  10 C10          3.0729    -0.2175     1.0000 C.ar         1    LIG   0.0000
  11 C11          2.3645    -1.4156     0.9995 C.ar         1    LIG   0.0000
  12 C12          3.0477    -2.6277     0.9988 C.ar         1    LIG   0.0000
  13 C13          4.4380    -2.6749     0.9981 C.ar         1    LIG   0.0000
  14 N14          5.3328    -3.7066     0.9992 N.2          1    LIG   0.0000
  15 C15          6.5449    -3.2019     0.9995 C.2          1    LIG   0.0000
  16 C16          7.8307    -4.0127     1.0002 C.3          1    LIG   0.0000
  17 C17          8.2594    -4.2831    -0.4312 C.ar         1    LIG   0.0000
  18 C18          7.6596    -5.3053    -1.1579 C.ar         1    LIG   0.0000
  19 C19          8.0549    -5.5515    -2.4682 C.ar         1    LIG   0.0000
  20 C20          9.0501    -4.7755    -3.0512 C.ar         1    LIG   0.0000
  21 C21          9.6506    -3.7540    -2.3242 C.ar         1    LIG   0.0000
  22 C22          9.2548    -3.5075    -1.0138 C.ar         1    LIG   0.0000
  23 F23          9.8296    -2.5317    -0.3183 F            1    LIG   0.0000
  24 N24          6.4740    -1.8403     0.9994 N.pl3        1    LIG   0.0000
  25 C25          5.1511    -1.5036     0.9997 C.ar         1    LIG   0.0000
  26 C26          4.4652    -0.2903     1.0000 C.ar         1    LIG   0.0000
  27 N27         -1.0467     2.2727     1.0000 N.2          1    LIG   0.0000
  28 N28         -1.7320     3.4031     0.9997 N.pl3        1    LIG   0.0000
  29 C29         -3.1298     3.3316     0.9995 C.ar         1    LIG   0.0000
  30 C30         -3.7938     2.6945     2.0427 C.ar         1    LIG   0.0000
  31 C31         -5.1829     2.6273     2.0321 C.ar         1    LIG   0.0000
  32 C32         -5.8988     3.1969     0.9843 C.ar         1    LIG   0.0000
  33 C33         -5.2393     3.8351    -0.0609 C.ar         1    LIG   0.0000
  34 C34         -3.8500     3.8987    -0.0458 C.ar         1    LIG   0.0000
  35 N35         -3.1742     4.5386    -1.0913 N.2          1    LIG   1.0000
  36 O36         -1.9656     4.5974    -1.0841 O.co2        1    LIG   0.0000
  37 O37         -3.8037     5.0371    -2.0098 O.co2        1    LIG  -1.0000
  38 H            7.2473    -1.2063     0.9992 H            1    LIG   0.0000
  39 H           -1.2620     6.6991     0.9993 H            1    LIG   0.0000
  40 H           -2.4714     5.9660     0.1828 H            1    LIG   0.0000
  41 H           -2.4715     5.9662     1.8158 H            1    LIG   0.0000
  42 H            0.7285     5.5787     0.9997 H            1    LIG   0.0000
  43 H            2.8700     1.8660     1.0000 H            1    LIG   0.0000
  44 H            1.3646    -1.4052     0.9996 H            1    LIG   0.0000
  45 H            2.5287    -3.4825     0.9988 H            1    LIG   0.0000
  46 H            8.5480    -3.4997     1.4718 H            1    LIG   0.0000
  47 H            7.6770    -4.8810     1.4718 H            1    LIG   0.0000
  48 H            6.9438    -5.8635    -0.7383 H            1    LIG   0.0000
  49 H            7.6233    -6.2867    -2.9910 H            1    LIG   0.0000
  50 H            9.3340    -4.9520    -3.9937 H            1    LIG   0.0000
  51 H           10.3672    -3.1965    -2.7433 H            1    LIG   0.0000
  52 H            4.9915     0.5601     1.0002 H            1    LIG   0.0000
  53 H           -3.2758     2.2875     2.7951 H            1    LIG   0.0000
  54 H           -5.6670     2.1694     2.7778 H            1    LIG   0.0000
  55 H           -6.8975     3.1471     0.9824 H            1    LIG   0.0000
  56 H           -5.7570     4.2428    -0.8131 H            1    LIG   0.0000
@<TRIPOS>BOND
   1        1        2 1
   2        2        3 2
   3        3        4 1
   4        4        5 2
   5        4        6 1
   6        6        7 1
   7        7        8 2
   8        7        9 am
   9        9       10 1
  10       10       11 ar
  11       11       12 ar
  12       12       13 ar
  13       13       14 1
  14       14       15 2
  15       15       16 1
  16       16       17 1
  17       17       18 ar
  18       18       19 ar
  19       19       20 ar
  20       20       21 ar
  21       21       22 ar
  22       22       17 ar
  23       22       23 1
  24       15       24 1
  25       24       25 1
  26       25       13 ar
  27       25       26 ar
  28       26       10 ar
  29        6       27 2
  30       27       28 1
  31       28        2 1
  32       28       29 1
  33       29       30 ar
  34       30       31 ar
  35       31       32 ar
  36       32       33 ar
  37       33       34 ar
  38       34       29 ar
  39       34       35 1
  40       35       36 ar
  41       35       37 ar
  42       24       38 1
  43        1       39 1
  44        1       40 1
  45        1       41 1
  46        3       42 1
  47        9       43 1
  48       11       44 1
  49       12       45 1
  50       16       46 1
  51       16       47 1
  52       18       48 1
  53       19       49 1
  54       20       50 1
  55       21       51 1
  56       26       52 1
  57       30       53 1
  58       31       54 1
  59       32       55 1
  60       33       56 1

@<TRIPOS>MOLECULE

  56   60
SMALL
USER_CHARGES
@<TRIPOS>ATOM
   1 C1          -1.8226     5.9674     0.9781 C.3          1    LIG   0.0000
   2 C2          -1.0869     4.6369     0.9941 C.2          1    LIG   0.0000
   3 C3          -1.6900     3.5690     1.6037 C.2          1    LIG   0.0000
   4 C4          -1.0035     2.3267     1.6187 C.2          1    LIG   0.0000
   5 O5          -1.5126     1.3542     2.1538 O.2          1    LIG   0.0000
   6 C6           0.2746     2.2564     1.0000 C.2          1    LIG   0.0000
   7 C7           1.0000     1.0000     1.0000 C.2          1    LIG   0.0000
   8 O8           0.4000    -0.0392     1.0000 O.2          1    LIG   0.0000
   9 N9           2.3700     1.0000     1.0000 N.am         1    LIG   0.0000
  10 C10          3.0729    -0.2175     1.0000 C.ar         1    LIG   0.0000
  11 C11          2.3645    -1.4156     0.9995 C.ar         1    LIG   0.0000
  12 C12          3.0477    -2.6277     0.9988 C.ar         1    LIG   0.0000
  13 C13          4.4380    -2.6749     0.9981 C.ar         1    LIG   0.0000
  14 N14          5.3328    -3.7066     0.9992 N.2          1    LIG   0.0000
  15 C15          6.5449    -3.2019     0.9995 C.2          1    LIG   0.0000
  16 C16          7.8307    -4.0127     1.0002 C.3          1    LIG   0.0000
  17 C17          8.2594    -4.2831    -0.4312 C.ar         1    LIG   0.0000
  18 C18          7.6596    -5.3053    -1.1579 C.ar         1    LIG   0.0000
  19 C19          8.0549    -5.5515    -2.4682 C.ar         1    LIG   0.0000
  20 C20          9.0501    -4.7755    -3.0512 C.ar         1    LIG   0.0000
  21 C21          9.6506    -3.7540    -2.3242 C.ar         1    LIG   0.0000
  22 C22          9.2548    -3.5075    -1.0138 C.ar         1    LIG   0.0000
  23 F23          9.8296    -2.5317    -0.3183 F            1    LIG   0.0000
  24 N24          6.4740    -1.8403     0.9994 N.pl3        1    LIG   0.0000
  25 C25          5.1511    -1.5036     0.9997 C.ar         1    LIG   0.0000
  26 C26          4.4652    -0.2903     1.0000 C.ar         1    LIG   0.0000
  27 N27          0.7894     3.3327     0.4319 N.2          1    LIG   0.0000
  28 N28          0.1499     4.4896     0.4181 N.pl3        1    LIG   0.0000
  29 C29          0.7662     5.5809    -0.2049 C.ar         1    LIG   0.0000
  30 C30          0.0036     6.6701    -0.6138 C.ar         1    LIG   0.0000
  31 C31          0.6254     7.7488    -1.2336 C.ar         1    LIG   0.0000
  32 C32          2.0012     7.7345    -1.4388 C.ar         1    LIG   0.0000
  33 C33          2.7678     6.6477    -1.0316 C.ar         1    LIG   0.0000
  34 C34          2.1408     5.5714    -0.4130 C.ar         1    LIG   0.0000
  35 N35          2.9009     4.4717     0.0020 N.2          1    LIG   1.0000
  36 O36          2.5607     3.3513    -0.3031 O.co2        1    LIG   0.0000
  37 O37          3.9064     4.6429     0.6714 O.co2        1    LIG  -1.0000
  38 H            7.2473    -1.2063     0.9992 H            1    LIG   0.0000
  39 H           -2.7009     5.8683     1.4459 H            1    LIG   0.0000
  40 H           -1.2718     6.6586     1.4460 H            1    LIG   0.0000
  41 H           -1.9791     6.2505     0.0318 H            1    LIG   0.0000
  42 H           -2.5910     3.6622     2.0274 H            1    LIG   0.0000
  43 H            2.8700     1.8660     1.0000 H            1    LIG   0.0000
  44 H            1.3646    -1.4052     0.9996 H            1    LIG   0.0000
  45 H            2.5287    -3.4825     0.9988 H            1    LIG   0.0000
  46 H            8.5480    -3.4997     1.4718 H            1    LIG   0.0000
  47 H            7.6770    -4.8810     1.4718 H            1    LIG   0.0000
  48 H            6.9438    -5.8635    -0.7383 H            1    LIG   0.0000
  49 H            7.6233    -6.2867    -2.9910 H            1    LIG   0.0000
  50 H            9.3340    -4.9520    -3.9937 H            1    LIG   0.0000
  51 H           10.3672    -3.1965    -2.7433 H            1    LIG   0.0000
  52 H            4.9915     0.5601     1.0002 H            1    LIG   0.0000
  53 H           -0.9849     6.6776    -0.4632 H            1    LIG   0.0000
  54 H            0.0835     8.5346    -1.5317 H            1    LIG   0.0000
  55 H            2.4435     8.5134    -1.8835 H            1    LIG   0.0000
  56 H            3.7565     6.6403    -1.1815 H            1    LIG   0.0000
@<TRIPOS>BOND
   1        1        2 1
   2        2        3 2
   3        3        4 1
   4        4        5 2
   5        4        6 1
   6        6        7 1
   7        7        8 2
   8        7        9 am
   9        9       10 1
  10       10       11 ar
  11       11       12 ar
  12       12       13 ar
  13       13       14 1
  14       14       15 2
  15       15       16 1
  16       16       17 1
  17       17       18 ar
  18       18       19 ar
  19       19       20 ar
  20       20       21 ar
  21       21       22 ar
  22       22       17 ar
  23       22       23 1
  24       15       24 1
  25       24       25 1
  26       25       13 ar
  27       25       26 ar
  28       26       10 ar
  29        6       27 2
  30       27       28 1
  31       28        2 1
  32       28       29 1
  33       29       30 ar
  34       30       31 ar
  35       31       32 ar
  36       32       33 ar
  37       33       34 ar
  38       34       29 ar
  39       34       35 1
  40       35       36 ar
  41       35       37 ar
  42       24       38 1
  43        1       39 1
  44        1       40 1
  45        1       41 1
  46        3       42 1
  47        9       43 1
  48       11       44 1
  49       12       45 1
  50       16       46 1
  51       16       47 1
  52       18       48 1
  53       19       49 1
  54       20       50 1
  55       21       51 1
  56       26       52 1
  57       30       53 1
  58       31       54 1
  59       32       55 1
  60       33       56 1

@<TRIPOS>MOLECULE

  56   60
SMALL
USER_CHARGES
@<TRIPOS>ATOM
   1 C1          -1.8504     5.9514     1.0444 C.3          1    LIG   0.0000
   2 C2          -1.0950     4.6322     1.0125 C.2          1    LIG   0.0000
   3 C3          -0.9667     3.9867    -0.1886 C.2          1    LIG   0.0000
   4 C4          -0.2614     2.7552    -0.2187 C.2          1    LIG   0.0000
   5 O5          -0.1284     2.1534    -1.2730 O.2          1    LIG   0.0000
   6 C6           0.2746     2.2564     1.0000 C.2          1    LIG   0.0000
   7 C7           1.0000     1.0000     1.0000 C.2          1    LIG   0.0000
   8 O8           0.4000    -0.0392     1.0000 O.2          1    LIG   0.0000
   9 N9           2.3700     1.0000     1.0000 N.am         1    LIG   0.0000
  10 C10          3.0729    -0.2175     1.0000 C.ar         1    LIG   0.0000
  11 C11          2.3645    -1.4156     0.9995 C.ar         1    LIG   0.0000
  12 C12          3.0477    -2.6277     0.9988 C.ar         1    LIG   0.0000
  13 C13          4.4380    -2.6749     0.9981 C.ar         1    LIG   0.0000
  14 N14          5.3328    -3.7066     0.9992 N.2          1    LIG   0.0000
  15 C15          6.5449    -3.2019     0.9995 C.2          1    LIG   0.0000
  16 C16          7.8307    -4.0127     1.0002 C.3          1    LIG   0.0000
  17 C17          8.2594    -4.2831    -0.4312 C.ar         1    LIG   0.0000
  18 C18          7.4965    -3.8043    -1.4902 C.ar         1    LIG   0.0000
  19 C19          7.8908    -4.0543    -2.8001 C.ar         1    LIG   0.0000
  20 C20          9.0478    -4.7832    -3.0505 C.ar         1    LIG   0.0000
  21 C21          9.8101    -5.2629    -1.9914 C.ar         1    LIG   0.0000
  22 C22          9.4159    -5.0123    -0.6813 C.ar         1    LIG   0.0000
  23 F23         10.1440    -5.4717     0.3311 F            1    LIG   0.0000
  24 N24          6.4740    -1.8403     0.9994 N.pl3        1    LIG   0.0000
  25 C25          5.1511    -1.5036     0.9997 C.ar         1    LIG   0.0000
  26 C26          4.4652    -0.2903     1.0000 C.ar         1    LIG   0.0000
  27 N27          0.1081     2.9394     2.1189 N.2          1    LIG   0.0000
  28 N28         -0.5487     4.0862     2.1468 N.pl3        1    LIG   0.0000
  29 C29         -0.6799     4.7460     3.3741 C.ar         1    LIG   0.0000
  30 C30          0.2823     5.6671     3.7751 C.ar         1    LIG   0.0000
  31 C31          0.1435     6.3159     4.9973 C.ar         1    LIG   0.0000
  32 C32         -0.9531     6.0437     5.8087 C.ar         1    LIG   0.0000
  33 C33         -1.9178     5.1236     5.4120 C.ar         1    LIG   0.0000
  34 C34         -1.7737     4.4770     4.1891 C.ar         1    LIG   0.0000
  35 N35         -2.7378     3.5493     3.7780 N.2          1    LIG   1.0000
  36 O36         -2.6164     2.3812     4.0693 O.co2        1    LIG   0.0000
  37 O37         -3.7006     3.9184     3.1259 O.co2        1    LIG  -1.0000
  38 H            7.2473    -1.2063     0.9992 H            1    LIG   0.0000
  39 H           -2.1678     6.1761     0.1231 H            1    LIG   0.0000
  40 H           -2.6364     5.8707     1.6573 H            1    LIG   0.0000
  41 H           -1.2438     6.6750     1.3737 H            1    LIG   0.0000
  42 H           -1.3597     4.3731    -1.0230 H            1    LIG   0.0000
  43 H            2.8700     1.8660     1.0000 H            1    LIG   0.0000
  44 H            1.3646    -1.4052     0.9996 H            1    LIG   0.0000
  45 H            2.5287    -3.4825     0.9988 H            1    LIG   0.0000
  46 H            8.5480    -3.4997     1.4718 H            1    LIG   0.0000
  47 H            7.6770    -4.8810     1.4718 H            1    LIG   0.0000
  48 H            6.6642    -3.2802    -1.3100 H            1    LIG   0.0000
  49 H            7.3421    -3.7098    -3.5619 H            1    LIG   0.0000
  50 H            9.3318    -4.9626    -3.9924 H            1    LIG   0.0000
  51 H           10.6418    -5.7880    -2.1716 H            1    LIG   0.0000
  52 H            4.9915     0.5601     1.0002 H            1    LIG   0.0000
  53 H            1.0685     5.8614     3.1884 H            1    LIG   0.0000
  54 H            0.8321     6.9781     5.2929 H            1    LIG   0.0000
  55 H           -1.0488     6.5142     6.6859 H            1    LIG   0.0000
  56 H           -2.7044     4.9296     5.9982 H            1    LIG   0.0000
@<TRIPOS>BOND
   1        1        2 1
   2        2        3 2
   3        3        4 1
   4        4        5 2
   5        4        6 1
   6        6        7 1
   7        7        8 2
   8        7        9 am
   9        9       10 1
  10       10       11 ar
  11       11       12 ar
  12       12       13 ar
  13       13       14 1
  14       14       15 2
  15       15       16 1
  16       16       17 1
  17       17       18 ar
  18       18       19 ar
  19       19       20 ar
  20       20       21 ar
  21       21       22 ar
  22       22       17 ar
  23       22       23 1
  24       15       24 1
  25       24       25 1
  26       25       13 ar
  27       25       26 ar
  28       26       10 ar
  29        6       27 2
  30       27       28 1
  31       28        2 1
  32       28       29 1
  33       29       30 ar
  34       30       31 ar
  35       31       32 ar
  36       32       33 ar
  37       33       34 ar
  38       34       29 ar
  39       34       35 1
  40       35       36 ar
  41       35       37 ar
  42       24       38 1
  43        1       39 1
  44        1       40 1
  45        1       41 1
  46        3       42 1
  47        9       43 1
  48       11       44 1
  49       12       45 1
  50       16       46 1
  51       16       47 1
  52       18       48 1
  53       19       49 1
  54       20       50 1
  55       21       51 1
  56       26       52 1
  57       30       53 1
  58       31       54 1
  59       32       55 1
  60       33       56 1

