@<TRIPOS>MOLECULE
*****
 56 60 0 0 0
SMALL
USER_CHARGES

@<TRIPOS>ATOM
      1 C1         -1.8367    5.9593    0.9614 C.3     1  LIG1        0.0000
      2 C2         -1.0908    4.6346    0.9893 C.2     1  LIG1        0.0000
      3 C3         -1.3074    3.7900    2.0454 C.2     1  LIG1        0.0000
      4 C4         -0.6113    2.5532    2.0717 C.2     1  LIG1        0.0000
      5 O5         -0.7811    1.7765    2.9986 O.2     1  LIG1        0.0000
      6 C6          0.2746    2.2564    1.0000 C.2     1  LIG1        0.0000
      7 C7          1.0000    1.0000    1.0000 C.2     1  LIG1        0.0000
      8 O8          0.4000   -0.0392    1.0000 O.2     1  LIG1        0.0000
      9 N9          2.3700    1.0000    1.0000 N.am    1  LIG1        0.0000
     10 C10         3.0729   -0.2175    1.0000 C.3     1  LIG1        0.0000
     11 C11         2.3645   -1.4156    0.9995 C.3     1  LIG1        0.0000
     12 C12         3.0477   -2.6277    0.9988 C.3     1  LIG1        0.0000
     13 C13         4.4380   -2.6749    0.9981 C.3     1  LIG1        0.0000
     14 N14         5.3328   -3.7066    0.9992 N.2     1  LIG1        0.0000
     15 C15         6.5449   -3.2019    0.9995 C.2     1  LIG1        0.0000
     16 C16         7.8307   -4.0127    1.0002 C.3     1  LIG1        0.0000
     17 C17         8.2583   -4.2823    2.4321 C.3     1  LIG1        0.0000
     18 C18         9.2543   -3.5107    3.0198 C.3     1  LIG1        0.0000
     19 C19         9.6448   -3.7604    4.3310 C.3     1  LIG1        0.0000
     20 C20         9.0392   -4.7819    5.0538 C.3     1  LIG1        0.0000
     21 C21         8.0439   -5.5541    4.4657 C.3     1  LIG1        0.0000
     22 C22         7.6531   -5.3039    3.1545 C.3     1  LIG1        0.0000
     23 F23         6.7025   -6.0428    2.5919 F       1  LIG1        0.0000
     24 N24         6.4740   -1.8403    0.9994 N.pl3   1  LIG1        0.0000
     25 C25         5.1511   -1.5036    0.9997 C.3     1  LIG1        0.0000
     26 C26         4.4652   -0.2903    1.0000 C.3     1  LIG1        0.0000
     27 N27         0.4292    3.1248    0.0160 N.2     1  LIG1        0.0000
     28 N28        -0.2191    4.2765   -0.0082 N.pl3   1  LIG1        0.0000
     29 C29         0.0022    5.1398   -1.0875 C.3     1  LIG1        0.0000
     30 C30         1.2814    5.6246   -1.3394 C.3     1  LIG1        0.0000
     31 C31         1.4904    6.4834   -2.4132 C.3     1  LIG1        0.0000
     32 C32         0.4243    6.8501   -3.2281 C.3     1  LIG1        0.0000
     33 C33        -0.8566    6.3679   -2.9802 C.3     1  LIG1        0.0000
     34 C34        -1.0600    5.5101   -1.9046 C.3     1  LIG1        0.0000
     35 N35        -2.3441    5.0173   -1.6445 N.pl3   1  LIG1        1.0000
     36 O36        -2.5278    4.2706   -0.7103 O.2     1  LIG1        0.0000
     37 O37        -3.2780    5.3406   -2.3599 O.2     1  LIG1       -1.0000
     38 H           7.2473   -1.2063    0.9992 H       1  LIG1        0.0000
     39 H          -2.4184    6.0315    1.7716 H       1  LIG1        0.0000
     40 H          -1.1787    6.7123    0.9554 H       1  LIG1        0.0000
     41 H          -2.4036    6.0054    0.1389 H       1  LIG1        0.0000
     42 H          -1.9398    4.0382    2.7792 H       1  LIG1        0.0000
     43 H           2.8700    1.8660    1.0000 H       1  LIG1        0.0000
     44 H           1.3646   -1.4052    0.9996 H       1  LIG1        0.0000
     45 H           2.5287   -3.4825    0.9988 H       1  LIG1        0.0000
     46 H           7.6773   -4.8813    0.5290 H       1  LIG1        0.0000
     47 H           8.5484   -3.5000    0.5290 H       1  LIG1        0.0000
     48 H           9.6900   -2.7761    2.4997 H       1  LIG1        0.0000
     49 H          10.3611   -3.2053    4.7537 H       1  LIG1        0.0000
     50 H           9.3194   -4.9612    5.9968 H       1  LIG1        0.0000
     51 H           7.6090   -6.2895    4.9854 H       1  LIG1        0.0000
     52 H           4.9915    0.5601    1.0002 H       1  LIG1        0.0000
     53 H           2.0457    5.3575   -0.7524 H       1  LIG1        0.0000
     54 H           2.4070    6.8371   -2.5995 H       1  LIG1        0.0000
     55 H           0.5804    7.4667   -3.9999 H       1  LIG1        0.0000
     56 H          -1.6208    6.6344   -3.5675 H       1  LIG1        0.0000
@<TRIPOS>BOND
     1     1     2    1
     2     2     3    2
     3     3     4    1
     4     4     5    2
     5     4     6    1
     6     6     7    1
     7     7     8    2
     8     7     9   am
     9     9    10    1
    10    10    11   ar
    11    11    12   ar
    12    12    13   ar
    13    13    14    1
    14    14    15    2
    15    15    16    1
    16    16    17    1
    17    17    18   ar
    18    18    19   ar
    19    19    20   ar
    20    20    21   ar
    21    21    22   ar
    22    22    17   ar
    23    22    23    1
    24    15    24    1
    25    24    25    1
    26    25    13   ar
    27    25    26   ar
    28    26    10   ar
    29     6    27    2
    30    27    28    1
    31    28     2    1
    32    28    29    1
    33    29    30   ar
    34    30    31   ar
    35    31    32   ar
    36    32    33   ar
    37    33    34   ar
    38    34    29   ar
    39    34    35    1
    40    35    36   ar
    41    35    37   ar
    42    24    38    1
    43     1    39    1
    44     1    40    1
    45     1    41    1
    46     3    42    1
    47     9    43    1
    48    11    44    1
    49    12    45    1
    50    16    46    1
    51    16    47    1
    52    18    48    1
    53    19    49    1
    54    20    50    1
    55    21    51    1
    56    26    52    1
    57    30    53    1
    58    31    54    1
    59    32    55    1
    60    33    56    1
