@<TRIPOS>MOLECULE
*****
 56 60 0 0 0
SMALL
USER_CHARGES

@<TRIPOS>ATOM
      1 C1         -1.8226    5.9674    0.9781 C.3     1  LIG1        0.0000
      2 C2         -1.0869    4.6369    0.9941 C.2     1  LIG1        0.0000
      3 C3         -1.6900    3.5690    1.6037 C.2     1  LIG1        0.0000
      4 C4         -1.0035    2.3267    1.6187 C.2     1  LIG1        0.0000
      5 O5         -1.5126    1.3542    2.1538 O.2     1  LIG1        0.0000
      6 C6          0.2746    2.2564    1.0000 C.2     1  LIG1        0.0000
      7 C7          1.0000    1.0000    1.0000 C.2     1  LIG1        0.0000
      8 O8          0.4000   -0.0392    1.0000 O.2     1  LIG1        0.0000
      9 N9          2.3700    1.0000    1.0000 N.am    1  LIG1        0.0000
     10 C10         3.0729   -0.2175    1.0000 C.3     1  LIG1        0.0000
     11 C11         2.3645   -1.4156    0.9995 C.3     1  LIG1        0.0000
     12 C12         3.0477   -2.6277    0.9988 C.3     1  LIG1        0.0000
     13 C13         4.4380   -2.6749    0.9981 C.3     1  LIG1        0.0000
     14 N14         5.3328   -3.7066    0.9992 N.2     1  LIG1        0.0000
     15 C15         6.5449   -3.2019    0.9995 C.2     1  LIG1        0.0000
     16 C16         7.8307   -4.0127    1.0002 C.3     1  LIG1        0.0000
     17 C17         8.2594   -4.2831   -0.4312 C.3     1  LIG1        0.0000
     18 C18         7.6596   -5.3053   -1.1579 C.3     1  LIG1        0.0000
     19 C19         8.0549   -5.5515   -2.4682 C.3     1  LIG1        0.0000
     20 C20         9.0501   -4.7755   -3.0512 C.3     1  LIG1        0.0000
     21 C21         9.6506   -3.7540   -2.3242 C.3     1  LIG1        0.0000
     22 C22         9.2548   -3.5075   -1.0138 C.3     1  LIG1        0.0000
     23 F23         9.8296   -2.5317   -0.3183 F       1  LIG1        0.0000
     24 N24         6.4740   -1.8403    0.9994 N.pl3   1  LIG1        0.0000
     25 C25         5.1511   -1.5036    0.9997 C.3     1  LIG1        0.0000
     26 C26         4.4652   -0.2903    1.0000 C.3     1  LIG1        0.0000
     27 N27         0.7894    3.3327    0.4319 N.2     1  LIG1        0.0000
     28 N28         0.1499    4.4896    0.4181 N.pl3   1  LIG1        0.0000
     29 C29         0.7662    5.5809   -0.2049 C.3     1  LIG1        0.0000
     30 C30         0.0036    6.6701   -0.6138 C.3     1  LIG1        0.0000
     31 C31         0.6254    7.7488   -1.2336 C.3     1  LIG1        0.0000
     32 C32         2.0012    7.7345   -1.4388 C.3     1  LIG1        0.0000
     33 C33         2.7678    6.6477   -1.0316 C.3     1  LIG1        0.0000
     34 C34         2.1408    5.5714   -0.4130 C.3     1  LIG1        0.0000
     35 N35         2.9009    4.4717    0.0020 N.pl3   1  LIG1        1.0000
     36 O36         2.5607    3.3513   -0.3031 O.2     1  LIG1        0.0000
     37 O37         3.9064    4.6429    0.6714 O.2     1  LIG1       -1.0000
     38 H           7.2473   -1.2063    0.9992 H       1  LIG1        0.0000
     39 H          -2.7009    5.8683    1.4459 H       1  LIG1        0.0000
     40 H          -1.2718    6.6586    1.4460 H       1  LIG1        0.0000
     41 H          -1.9791    6.2505    0.0318 H       1  LIG1        0.0000
     42 H          -2.5910    3.6622    2.0274 H       1  LIG1        0.0000
     43 H           2.8700    1.8660    1.0000 H       1  LIG1        0.0000
     44 H           1.3646   -1.4052    0.9996 H       1  LIG1        0.0000
     45 H           2.5287   -3.4825    0.9988 H       1  LIG1        0.0000
     46 H           8.5480   -3.4997    1.4718 H       1  LIG1        0.0000
     47 H           7.6770   -4.8810    1.4718 H       1  LIG1        0.0000
     48 H           6.9438   -5.8635   -0.7383 H       1  LIG1        0.0000
     49 H           7.6233   -6.2867   -2.9910 H       1  LIG1        0.0000
     50 H           9.3340   -4.9520   -3.9937 H       1  LIG1        0.0000
     51 H          10.3672   -3.1965   -2.7433 H       1  LIG1        0.0000
     52 H           4.9915    0.5601    1.0002 H       1  LIG1        0.0000
     53 H          -0.9849    6.6776   -0.4632 H       1  LIG1        0.0000
     54 H           0.0835    8.5346   -1.5317 H       1  LIG1        0.0000
     55 H           2.4435    8.5134   -1.8835 H       1  LIG1        0.0000
     56 H           3.7565    6.6403   -1.1815 H       1  LIG1        0.0000
@<TRIPOS>BOND
     1     1     2    1
     2     2     3    2
     3     3     4    1
     4     4     5    2
     5     4     6    1
     6     6     7    1
     7     7     8    2
     8     7     9   am
     9     9    10    1
    10    10    11   ar
    11    11    12   ar
    12    12    13   ar
    13    13    14    1
    14    14    15    2
    15    15    16    1
    16    16    17    1
    17    17    18   ar
    18    18    19   ar
    19    19    20   ar
    20    20    21   ar
    21    21    22   ar
    22    22    17   ar
    23    22    23    1
    24    15    24    1
    25    24    25    1
    26    25    13   ar
    27    25    26   ar
    28    26    10   ar
    29     6    27    2
    30    27    28    1
    31    28     2    1
    32    28    29    1
    33    29    30   ar
    34    30    31   ar
    35    31    32   ar
    36    32    33   ar
    37    33    34   ar
    38    34    29   ar
    39    34    35    1
    40    35    36   ar
    41    35    37   ar
    42    24    38    1
    43     1    39    1
    44     1    40    1
    45     1    41    1
    46     3    42    1
    47     9    43    1
    48    11    44    1
    49    12    45    1
    50    16    46    1
    51    16    47    1
    52    18    48    1
    53    19    49    1
    54    20    50    1
    55    21    51    1
    56    26    52    1
    57    30    53    1
    58    31    54    1
    59    32    55    1
    60    33    56    1
