@<TRIPOS>MOLECULE
*****
 56 60 0 0 0
SMALL
USER_CHARGES

@<TRIPOS>ATOM
      1 C1         -1.8756    5.9369    0.9608 C.3     1  LIG1        0.0000
      2 C2         -1.1017    4.6283    0.9889 C.2     1  LIG1        0.0000
      3 C3         -0.2621    4.3934    2.0451 C.2     1  LIG1        0.0000
      4 C4          0.4605    3.1719    2.0718 C.2     1  LIG1        0.0000
      5 O5          1.2177    2.9305    2.9989 O.2     1  LIG1        0.0000
      6 C6          0.2746    2.2564    1.0000 C.2     1  LIG1        0.0000
      7 C7          1.0000    1.0000    1.0000 C.2     1  LIG1        0.0000
      8 O8          0.4000   -0.0392    1.0000 O.2     1  LIG1        0.0000
      9 N9          2.3700    1.0000    1.0000 N.am    1  LIG1        0.0000
     10 C10         3.0729   -0.2175    1.0000 C.3     1  LIG1        0.0000
     11 C11         2.3645   -1.4156    0.9995 C.3     1  LIG1        0.0000
     12 C12         3.0477   -2.6277    0.9988 C.3     1  LIG1        0.0000
     13 C13         4.4380   -2.6749    0.9981 C.3     1  LIG1        0.0000
     14 N14         5.3328   -3.7066    0.9992 N.2     1  LIG1        0.0000
     15 C15         6.5449   -3.2019    0.9995 C.2     1  LIG1        0.0000
     16 C16         7.8307   -4.0127    1.0002 C.3     1  LIG1        0.0000
     17 C17         9.0225   -3.0717    1.0004 C.3     1  LIG1        0.0000
     18 C18         9.6978   -2.8014    2.1852 C.3     1  LIG1        0.0000
     19 C19        10.7882   -1.9383    2.1828 C.3     1  LIG1        0.0000
     20 C20        11.2027   -1.3458    0.9955 C.3     1  LIG1        0.0000
     21 C21        10.5268   -1.6152   -0.1890 C.3     1  LIG1        0.0000
     22 C22         9.4365   -2.4788   -0.1866 C.3     1  LIG1        0.0000
     23 F23         8.7896   -2.7357   -1.3187 F       1  LIG1        0.0000
     24 N24         6.4740   -1.8403    0.9994 N.pl3   1  LIG1        0.0000
     25 C25         5.1511   -1.5036    0.9997 C.3     1  LIG1        0.0000
     26 C26         4.4652   -0.2903    1.0000 C.3     1  LIG1        0.0000
     27 N27        -0.5547    2.5567    0.0160 N.2     1  LIG1        0.0000
     28 N28        -1.2275    3.6943   -0.0086 N.pl3   1  LIG1        0.0000
     29 C29        -2.0856    3.9345   -1.0880 C.3     1  LIG1        0.0000
     30 C30        -3.3963    4.3394   -0.8578 C.3     1  LIG1        0.0000
     31 C31        -4.2414    4.5737   -1.9373 C.3     1  LIG1        0.0000
     32 C32        -3.7734    4.4049   -3.2363 C.3     1  LIG1        0.0000
     33 C33        -2.4636    4.0003   -3.4714 C.3     1  LIG1        0.0000
     34 C34        -1.6230    3.7666   -2.3883 C.3     1  LIG1        0.0000
     35 N35        -0.3025    3.3595   -2.6112 N.pl3   1  LIG1        1.0000
     36 O36         0.4339    3.1546   -1.6732 O.2     1  LIG1        0.0000
     37 O37         0.1060    3.2113   -3.7512 O.2     1  LIG1       -1.0000
     38 H           7.2473   -1.2063    0.9992 H       1  LIG1        0.0000
     39 H          -1.6471    6.4767    1.7709 H       1  LIG1        0.0000
     40 H          -1.6319    6.4507    0.1382 H       1  LIG1        0.0000
     41 H          -2.8568    5.7438    0.9547 H       1  LIG1        0.0000
     42 H          -0.1607    5.0653    2.7789 H       1  LIG1        0.0000
     43 H           2.8700    1.8660    1.0000 H       1  LIG1        0.0000
     44 H           1.3646   -1.4052    0.9996 H       1  LIG1        0.0000
     45 H           2.5287   -3.4825    0.9988 H       1  LIG1        0.0000
     46 H           7.8609   -4.5890    1.8169 H       1  LIG1        0.0000
     47 H           7.8615   -4.5895    0.1839 H       1  LIG1        0.0000
     48 H           9.3994   -3.2276    3.0392 H       1  LIG1        0.0000
     49 H          11.2741   -1.7440    3.0350 H       1  LIG1        0.0000
     50 H          11.9872   -0.7256    0.9935 H       1  LIG1        0.0000
     51 H          10.8244   -1.1882   -1.0428 H       1  LIG1        0.0000
     52 H           4.9915    0.5601    1.0002 H       1  LIG1        0.0000
     53 H          -3.7287    4.4613    0.0774 H       1  LIG1        0.0000
     54 H          -5.1854    4.8634   -1.7795 H       1  LIG1        0.0000
     55 H          -4.3848    4.5762   -4.0089 H       1  LIG1        0.0000
     56 H          -2.1308    3.8790   -4.4065 H       1  LIG1        0.0000
@<TRIPOS>BOND
     1     1     2    1
     2     2     3    2
     3     3     4    1
     4     4     5    2
     5     4     6    1
     6     6     7    1
     7     7     8    2
     8     7     9   am
     9     9    10    1
    10    10    11   ar
    11    11    12   ar
    12    12    13   ar
    13    13    14    1
    14    14    15    2
    15    15    16    1
    16    16    17    1
    17    17    18   ar
    18    18    19   ar
    19    19    20   ar
    20    20    21   ar
    21    21    22   ar
    22    22    17   ar
    23    22    23    1
    24    15    24    1
    25    24    25    1
    26    25    13   ar
    27    25    26   ar
    28    26    10   ar
    29     6    27    2
    30    27    28    1
    31    28     2    1
    32    28    29    1
    33    29    30   ar
    34    30    31   ar
    35    31    32   ar
    36    32    33   ar
    37    33    34   ar
    38    34    29   ar
    39    34    35    1
    40    35    36   ar
    41    35    37   ar
    42    24    38    1
    43     1    39    1
    44     1    40    1
    45     1    41    1
    46     3    42    1
    47     9    43    1
    48    11    44    1
    49    12    45    1
    50    16    46    1
    51    16    47    1
    52    18    48    1
    53    19    49    1
    54    20    50    1
    55    21    51    1
    56    26    52    1
    57    30    53    1
    58    31    54    1
    59    32    55    1
    60    33    56    1
