@<TRIPOS>MOLECULE
*****
 56 60 0 0 0
SMALL
USER_CHARGES

@<TRIPOS>ATOM
      1 C1         -1.8955    5.9254    0.9994 C.3     1  LIG1        0.0000
      2 C2         -1.1075    4.6250    0.9996 C.2     1  LIG1        0.0000
      3 C3          0.2603    4.6951    0.9997 C.2     1  LIG1        0.0000
      4 C4          0.9964    3.4813    1.0001 C.2     1  LIG1        0.0000
      5 O5          2.2173    3.5076    1.0003 O.2     1  LIG1        0.0000
      6 C6          0.2746    2.2564    1.0000 C.2     1  LIG1        0.0000
      7 C7          1.0000    1.0000    1.0000 C.2     1  LIG1        0.0000
      8 O8          0.4000   -0.0392    1.0000 O.2     1  LIG1        0.0000
      9 N9          2.3700    1.0000    1.0000 N.am    1  LIG1        0.0000
     10 C10         3.0729   -0.2175    1.0000 C.3     1  LIG1        0.0000
     11 C11         2.3645   -1.4156    0.9995 C.3     1  LIG1        0.0000
     12 C12         3.0477   -2.6277    0.9988 C.3     1  LIG1        0.0000
     13 C13         4.4380   -2.6749    0.9981 C.3     1  LIG1        0.0000
     14 N14         5.3328   -3.7066    0.9992 N.2     1  LIG1        0.0000
     15 C15         6.5449   -3.2019    0.9995 C.2     1  LIG1        0.0000
     16 C16         7.8307   -4.0127    1.0002 C.3     1  LIG1        0.0000
     17 C17         8.2583   -4.2823    2.4321 C.3     1  LIG1        0.0000
     18 C18         7.9879   -5.5122    3.0212 C.3     1  LIG1        0.0000
     19 C19         8.3796   -5.7561    4.3330 C.3     1  LIG1        0.0000
     20 C20         9.0414   -4.7697    5.0554 C.3     1  LIG1        0.0000
     21 C21         9.3107   -3.5394    4.4667 C.3     1  LIG1        0.0000
     22 C22         8.9194   -3.2958    3.1545 C.3     1  LIG1        0.0000
     23 F23         9.1759   -2.1194    2.5919 F       1  LIG1        0.0000
     24 N24         6.4740   -1.8403    0.9994 N.pl3   1  LIG1        0.0000
     25 C25         5.1511   -1.5036    0.9997 C.3     1  LIG1        0.0000
     26 C26         4.4652   -0.2903    1.0000 C.3     1  LIG1        0.0000
     27 N27        -1.0467    2.2727    1.0000 N.2     1  LIG1        0.0000
     28 N28        -1.7320    3.4031    0.9997 N.pl3   1  LIG1        0.0000
     29 C29        -3.1298    3.3316    0.9995 C.3     1  LIG1        0.0000
     30 C30        -3.7938    2.6945    2.0427 C.3     1  LIG1        0.0000
     31 C31        -5.1829    2.6273    2.0321 C.3     1  LIG1        0.0000
     32 C32        -5.8988    3.1969    0.9843 C.3     1  LIG1        0.0000
     33 C33        -5.2393    3.8351   -0.0609 C.3     1  LIG1        0.0000
     34 C34        -3.8500    3.8987   -0.0458 C.3     1  LIG1        0.0000
     35 N35        -3.1742    4.5386   -1.0913 N.pl3   1  LIG1        1.0000
     36 O36        -1.9656    4.5974   -1.0841 O.2     1  LIG1        0.0000
     37 O37        -3.8037    5.0371   -2.0098 O.2     1  LIG1       -1.0000
     38 H           7.2473   -1.2063    0.9992 H       1  LIG1        0.0000
     39 H          -1.2620    6.6991    0.9993 H       1  LIG1        0.0000
     40 H          -2.4714    5.9660    0.1828 H       1  LIG1        0.0000
     41 H          -2.4715    5.9662    1.8158 H       1  LIG1        0.0000
     42 H           0.7285    5.5787    0.9997 H       1  LIG1        0.0000
     43 H           2.8700    1.8660    1.0000 H       1  LIG1        0.0000
     44 H           1.3646   -1.4052    0.9996 H       1  LIG1        0.0000
     45 H           2.5287   -3.4825    0.9988 H       1  LIG1        0.0000
     46 H           7.6773   -4.8813    0.5290 H       1  LIG1        0.0000
     47 H           8.5484   -3.5000    0.5290 H       1  LIG1        0.0000
     48 H           7.5118   -6.2215    2.5015 H       1  LIG1        0.0000
     49 H           8.1853   -6.6408    4.7567 H       1  LIG1        0.0000
     50 H           9.3236   -4.9452    5.9986 H       1  LIG1        0.0000
     51 H           9.7859   -2.8296    4.9867 H       1  LIG1        0.0000
     52 H           4.9915    0.5601    1.0002 H       1  LIG1        0.0000
     53 H          -3.2758    2.2875    2.7951 H       1  LIG1        0.0000
     54 H          -5.6670    2.1694    2.7778 H       1  LIG1        0.0000
     55 H          -6.8975    3.1471    0.9824 H       1  LIG1        0.0000
     56 H          -5.7570    4.2428   -0.8131 H       1  LIG1        0.0000
@<TRIPOS>BOND
     1     1     2    1
     2     2     3    2
     3     3     4    1
     4     4     5    2
     5     4     6    1
     6     6     7    1
     7     7     8    2
     8     7     9   am
     9     9    10    1
    10    10    11   ar
    11    11    12   ar
    12    12    13   ar
    13    13    14    1
    14    14    15    2
    15    15    16    1
    16    16    17    1
    17    17    18   ar
    18    18    19   ar
    19    19    20   ar
    20    20    21   ar
    21    21    22   ar
    22    22    17   ar
    23    22    23    1
    24    15    24    1
    25    24    25    1
    26    25    13   ar
    27    25    26   ar
    28    26    10   ar
    29     6    27    2
    30    27    28    1
    31    28     2    1
    32    28    29    1
    33    29    30   ar
    34    30    31   ar
    35    31    32   ar
    36    32    33   ar
    37    33    34   ar
    38    34    29   ar
    39    34    35    1
    40    35    36   ar
    41    35    37   ar
    42    24    38    1
    43     1    39    1
    44     1    40    1
    45     1    41    1
    46     3    42    1
    47     9    43    1
    48    11    44    1
    49    12    45    1
    50    16    46    1
    51    16    47    1
    52    18    48    1
    53    19    49    1
    54    20    50    1
    55    21    51    1
    56    26    52    1
    57    30    53    1
    58    31    54    1
    59    32    55    1
    60    33    56    1
