@<TRIPOS>MOLECULE
*****
 56 60 0 0 0
SMALL
USER_CHARGES

@<TRIPOS>ATOM
      1 C1         -1.8177    5.9703    1.0006 C.3     1  LIG1        0.0000
      2 C2         -1.0856    4.6376    1.0004 C.2     1  LIG1        0.0000
      3 C3         -1.8302    3.4881    1.0003 C.2     1  LIG1        0.0000
      4 C4         -1.1471    2.2438    0.9999 C.2     1  LIG1        0.0000
      5 O5         -1.7803    1.1996    0.9997 O.2     1  LIG1        0.0000
      6 C6          0.2746    2.2564    1.0000 C.2     1  LIG1        0.0000
      7 C7          1.0000    1.0000    1.0000 C.2     1  LIG1        0.0000
      8 O8          0.4000   -0.0392    1.0000 O.2     1  LIG1        0.0000
      9 N9          2.3700    1.0000    1.0000 N.am    1  LIG1        0.0000
     10 C10         3.0729   -0.2175    1.0000 C.3     1  LIG1        0.0000
     11 C11         2.3645   -1.4156    0.9995 C.3     1  LIG1        0.0000
     12 C12         3.0477   -2.6277    0.9988 C.3     1  LIG1        0.0000
     13 C13         4.4380   -2.6749    0.9981 C.3     1  LIG1        0.0000
     14 N14         5.3328   -3.7066    0.9992 N.2     1  LIG1        0.0000
     15 C15         6.5449   -3.2019    0.9995 C.2     1  LIG1        0.0000
     16 C16         7.8307   -4.0127    1.0002 C.3     1  LIG1        0.0000
     17 C17         8.2594   -4.2831   -0.4312 C.3     1  LIG1        0.0000
     18 C18         9.2532   -3.5093   -1.0198 C.3     1  LIG1        0.0000
     19 C19         9.6432   -3.7583   -2.3312 C.3     1  LIG1        0.0000
     20 C20         9.0389   -4.7809   -3.0536 C.3     1  LIG1        0.0000
     21 C21         8.0444   -5.5539   -2.4653 C.3     1  LIG1        0.0000
     22 C22         7.6548   -5.3051   -1.1535 C.3     1  LIG1        0.0000
     23 F23         6.7034   -6.0434   -0.5913 F       1  LIG1        0.0000
     24 N24         6.4740   -1.8403    0.9994 N.pl3   1  LIG1        0.0000
     25 C25         5.1511   -1.5036    0.9997 C.3     1  LIG1        0.0000
     26 C26         4.4652   -0.2903    1.0000 C.3     1  LIG1        0.0000
     27 N27         0.9212    3.4089    1.0000 N.2     1  LIG1        0.0000
     28 N28         0.2848    4.5675    1.0003 N.pl3   1  LIG1        0.0000
     29 C29         1.0457    5.7423    1.0005 C.3     1  LIG1        0.0000
     30 C30         1.9292    5.9986    2.0439 C.3     1  LIG1        0.0000
     31 C31         2.6792    7.1697    2.0355 C.3     1  LIG1        0.0000
     32 C32         2.5447    8.0743    0.9874 C.3     1  LIG1        0.0000
     33 C33         1.6626    7.8223   -0.0582 C.3     1  LIG1        0.0000
     34 C34         0.9144    6.6500   -0.0444 C.3     1  LIG1        0.0000
     35 N35         0.0236    6.3842   -1.0908 N.pl3   1  LIG1        1.0000
     36 O36        -0.6303    5.3661   -1.0848 O.2     1  LIG1        0.0000
     37 O37        -0.0936    7.1791   -2.0089 O.2     1  LIG1       -1.0000
     38 H           7.2473   -1.2063    0.9992 H       1  LIG1        0.0000
     39 H          -2.8045    5.8085    1.0007 H       1  LIG1        0.0000
     40 H          -1.5650    6.4893    1.8172 H       1  LIG1        0.0000
     41 H          -1.5651    6.4895    0.1842 H       1  LIG1        0.0000
     42 H          -2.8295    3.5245    1.0003 H       1  LIG1        0.0000
     43 H           2.8700    1.8660    1.0000 H       1  LIG1        0.0000
     44 H           1.3646   -1.4052    0.9996 H       1  LIG1        0.0000
     45 H           2.5287   -3.4825    0.9988 H       1  LIG1        0.0000
     46 H           8.5480   -3.4997    1.4718 H       1  LIG1        0.0000
     47 H           7.6770   -4.8810    1.4718 H       1  LIG1        0.0000
     48 H           9.6876   -2.7737   -0.5001 H       1  LIG1        0.0000
     49 H          10.3581   -3.2019   -2.7546 H       1  LIG1        0.0000
     50 H           9.3196   -4.9605   -3.9964 H       1  LIG1        0.0000
     51 H           7.6091   -6.2889   -2.9853 H       1  LIG1        0.0000
     52 H           4.9915    0.5601    1.0002 H       1  LIG1        0.0000
     53 H           2.0244    5.3452    2.7949 H       1  LIG1        0.0000
     54 H           3.3152    7.3615    2.7830 H       1  LIG1        0.0000
     55 H           3.0876    8.9142    0.9855 H       1  LIG1        0.0000
     56 H           1.5677    8.4753   -0.8096 H       1  LIG1        0.0000
@<TRIPOS>BOND
     1     1     2    1
     2     2     3    2
     3     3     4    1
     4     4     5    2
     5     4     6    1
     6     6     7    1
     7     7     8    2
     8     7     9   am
     9     9    10    1
    10    10    11   ar
    11    11    12   ar
    12    12    13   ar
    13    13    14    1
    14    14    15    2
    15    15    16    1
    16    16    17    1
    17    17    18   ar
    18    18    19   ar
    19    19    20   ar
    20    20    21   ar
    21    21    22   ar
    22    22    17   ar
    23    22    23    1
    24    15    24    1
    25    24    25    1
    26    25    13   ar
    27    25    26   ar
    28    26    10   ar
    29     6    27    2
    30    27    28    1
    31    28     2    1
    32    28    29    1
    33    29    30   ar
    34    30    31   ar
    35    31    32   ar
    36    32    33   ar
    37    33    34   ar
    38    34    29   ar
    39    34    35    1
    40    35    36   ar
    41    35    37   ar
    42    24    38    1
    43     1    39    1
    44     1    40    1
    45     1    41    1
    46     3    42    1
    47     9    43    1
    48    11    44    1
    49    12    45    1
    50    16    46    1
    51    16    47    1
    52    18    48    1
    53    19    49    1
    54    20    50    1
    55    21    51    1
    56    26    52    1
    57    30    53    1
    58    31    54    1
    59    32    55    1
    60    33    56    1
