@<TRIPOS>MOLECULE

  27   28
SMALL
USER_CHARGES
@<TRIPOS>ATOM
   1 C1           4.2508    -0.9050    -0.0802 C.3          1    LIG   0.0000
   2 S2           3.7978     0.8469    -0.0387 S.3          1    LIG   0.0000
   3 C3           2.0590     0.7892    -0.0267 C.2          1    LIG   0.0000
   4 N4           1.3355    -0.3055    -0.0446 N.2          1    LIG   0.0000
   5 N5           0.0730     0.0552    -0.0280 N.2          1    LIG   0.0000
   6 C6           0.0415     1.3664     0.0019 C.2          1    LIG   0.0000
   7 C7          -1.1619     2.1743     0.0299 C.ar         1    LIG   0.0000
   8 C8          -1.0508     3.5605     0.0596 C.ar         1    LIG   0.0000
   9 C9          -2.2113     4.3260     0.0876 C.ar         1    LIG   0.0000
  10 C10         -2.1087     5.8418     0.1203 C.3          1    LIG   0.0000
  11 C11         -3.4678     3.7297     0.0863 C.ar         1    LIG   0.0000
  12 C12         -3.5514     2.3417     0.0557 C.ar         1    LIG   0.0000
  13 C13         -4.9153     1.6716     0.0538 C.3          1    LIG   0.0000
  14 C14         -2.4063     1.5532     0.0278 C.ar         1    LIG   0.0000
  15 O15          1.2673     1.8330     0.0020 O.2          1    LIG   0.0000
  16 H            5.2470    -0.9916    -0.0896 H            1    LIG   0.0000
  17 H            3.8840    -1.3634     0.7294 H            1    LIG   0.0000
  18 H            3.8716    -1.3280    -0.9032 H            1    LIG   0.0000
  19 H           -0.1520     3.9989     0.0609 H            1    LIG   0.0000
  20 H           -3.0269     6.2377     0.1377 H            1    LIG   0.0000
  21 H           -1.6082     6.1245     0.9385 H            1    LIG   0.0000
  22 H           -1.6236     6.1607    -0.6940 H            1    LIG   0.0000
  23 H           -4.2965     4.2890     0.1070 H            1    LIG   0.0000
  24 H           -5.6301     2.3706     0.0758 H            1    LIG   0.0000
  25 H           -5.0143     1.1196    -0.7741 H            1    LIG   0.0000
  26 H           -4.9990     1.0838     0.8584 H            1    LIG   0.0000
  27 H           -2.4764     0.5559     0.0065 H            1    LIG   0.0000
@<TRIPOS>BOND
   1        1        2 1
   2        2        3 1
   3        3        4 2
   4        4        5 1
   5        5        6 2
   6        6        7 1
   7        7        8 ar
   8        8        9 ar
   9        9       10 1
  10        9       11 ar
  11       11       12 ar
  12       12       13 1
  13       12       14 ar
  14       14        7 ar
  15        6       15 1
  16       15        3 1
  17        1       16 1
  18        1       17 1
  19        1       18 1
  20        8       19 1
  21       10       20 1
  22       10       21 1
  23       10       22 1
  24       11       23 1
  25       13       24 1
  26       13       25 1
  27       13       26 1
  28       14       27 1

@<TRIPOS>MOLECULE

  27   28
SMALL
USER_CHARGES
@<TRIPOS>ATOM
   1 C1           4.1341     2.6250    -0.0027 C.3          1    LIG   0.0000
   2 S2           3.7978     0.8469    -0.0387 S.3          1    LIG   0.0000
   3 C3           2.0590     0.7892    -0.0267 C.2          1    LIG   0.0000
   4 N4           1.3355    -0.3055    -0.0446 N.2          1    LIG   0.0000
   5 N5           0.0730     0.0552    -0.0280 N.2          1    LIG   0.0000
   6 C6           0.0415     1.3664     0.0019 C.2          1    LIG   0.0000
   7 C7          -1.1619     2.1743     0.0299 C.ar         1    LIG   0.0000
   8 C8          -1.0508     3.5605     0.0596 C.ar         1    LIG   0.0000
   9 C9          -2.2113     4.3260     0.0876 C.ar         1    LIG   0.0000
  10 C10         -2.1087     5.8418     0.1203 C.3          1    LIG   0.0000
  11 C11         -3.4678     3.7297     0.0863 C.ar         1    LIG   0.0000
  12 C12         -3.5514     2.3417     0.0557 C.ar         1    LIG   0.0000
  13 C13         -4.9153     1.6716     0.0538 C.3          1    LIG   0.0000
  14 C14         -2.4063     1.5532     0.0278 C.ar         1    LIG   0.0000
  15 O15          1.2673     1.8330     0.0020 O.2          1    LIG   0.0000
  16 H            5.1224     2.7775    -0.0069 H            1    LIG   0.0000
  17 H            3.7266     3.0577    -0.8069 H            1    LIG   0.0000
  18 H            3.7391     3.0222     0.8257 H            1    LIG   0.0000
  19 H           -0.1520     3.9989     0.0609 H            1    LIG   0.0000
  20 H           -3.0269     6.2377     0.1377 H            1    LIG   0.0000
  21 H           -1.6082     6.1245     0.9385 H            1    LIG   0.0000
  22 H           -1.6236     6.1607    -0.6940 H            1    LIG   0.0000
  23 H           -4.2965     4.2890     0.1070 H            1    LIG   0.0000
  24 H           -5.6301     2.3706     0.0758 H            1    LIG   0.0000
  25 H           -5.0143     1.1196    -0.7741 H            1    LIG   0.0000
  26 H           -4.9990     1.0838     0.8584 H            1    LIG   0.0000
  27 H           -2.4764     0.5559     0.0065 H            1    LIG   0.0000
@<TRIPOS>BOND
   1        1        2 1
   2        2        3 1
   3        3        4 2
   4        4        5 1
   5        5        6 2
   6        6        7 1
   7        7        8 ar
   8        8        9 ar
   9        9       10 1
  10        9       11 ar
  11       11       12 ar
  12       12       13 1
  13       12       14 ar
  14       14        7 ar
  15        6       15 1
  16       15        3 1
  17        1       16 1
  18        1       17 1
  19        1       18 1
  20        8       19 1
  21       10       20 1
  22       10       21 1
  23       10       22 1
  24       11       23 1
  25       13       24 1
  26       13       25 1
  27       13       26 1
  28       14       27 1

@<TRIPOS>MOLECULE

  27   28
SMALL
USER_CHARGES
@<TRIPOS>ATOM
   1 C1           4.2059     0.8217     1.7245 C.3          1    LIG   0.0000
   2 S2           3.7978     0.8469    -0.0387 S.3          1    LIG   0.0000
   3 C3           2.0590     0.7892    -0.0267 C.2          1    LIG   0.0000
   4 N4           1.3355    -0.3055    -0.0446 N.2          1    LIG   0.0000
   5 N5           0.0730     0.0552    -0.0280 N.2          1    LIG   0.0000
   6 C6           0.0415     1.3664     0.0019 C.2          1    LIG   0.0000
   7 C7          -1.1619     2.1743     0.0299 C.ar         1    LIG   0.0000
   8 C8          -1.0508     3.5605     0.0596 C.ar         1    LIG   0.0000
   9 C9          -2.2113     4.3260     0.0876 C.ar         1    LIG   0.0000
  10 C10         -2.1087     5.8418     0.1203 C.3          1    LIG   0.0000
  11 C11         -3.4678     3.7297     0.0863 C.ar         1    LIG   0.0000
  12 C12         -3.5514     2.3417     0.0557 C.ar         1    LIG   0.0000
  13 C13         -4.9153     1.6716     0.0538 C.3          1    LIG   0.0000
  14 C14         -2.4063     1.5532     0.0278 C.ar         1    LIG   0.0000
  15 O15          1.2673     1.8330     0.0020 O.2          1    LIG   0.0000
  16 H            5.1990     0.8520     1.8373 H            1    LIG   0.0000
  17 H            3.7951     1.6154     2.1731 H            1    LIG   0.0000
  18 H            3.8490    -0.0163     2.1373 H            1    LIG   0.0000
  19 H           -0.1520     3.9989     0.0609 H            1    LIG   0.0000
  20 H           -3.0269     6.2377     0.1377 H            1    LIG   0.0000
  21 H           -1.6082     6.1245     0.9385 H            1    LIG   0.0000
  22 H           -1.6236     6.1607    -0.6940 H            1    LIG   0.0000
  23 H           -4.2965     4.2890     0.1070 H            1    LIG   0.0000
  24 H           -5.6301     2.3706     0.0758 H            1    LIG   0.0000
  25 H           -5.0143     1.1196    -0.7741 H            1    LIG   0.0000
  26 H           -4.9990     1.0838     0.8584 H            1    LIG   0.0000
  27 H           -2.4764     0.5559     0.0065 H            1    LIG   0.0000
@<TRIPOS>BOND
   1        1        2 1
   2        2        3 1
   3        3        4 2
   4        4        5 1
   5        5        6 2
   6        6        7 1
   7        7        8 ar
   8        8        9 ar
   9        9       10 1
  10        9       11 ar
  11       11       12 ar
  12       12       13 1
  13       12       14 ar
  14       14        7 ar
  15        6       15 1
  16       15        3 1
  17        1       16 1
  18        1       17 1
  19        1       18 1
  20        8       19 1
  21       10       20 1
  22       10       21 1
  23       10       22 1
  24       11       23 1
  25       13       24 1
  26       13       25 1
  27       13       26 1
  28       14       27 1

@<TRIPOS>MOLECULE

  27   28
SMALL
USER_CHARGES
@<TRIPOS>ATOM
   1 C1           4.1790     0.8983    -1.8073 C.3          1    LIG   0.0000
   2 S2           3.7978     0.8469    -0.0387 S.3          1    LIG   0.0000
   3 C3           2.0590     0.7892    -0.0267 C.2          1    LIG   0.0000
   4 N4           1.3355    -0.3055    -0.0446 N.2          1    LIG   0.0000
   5 N5           0.0730     0.0552    -0.0280 N.2          1    LIG   0.0000
   6 C6           0.0415     1.3664     0.0019 C.2          1    LIG   0.0000
   7 C7          -1.1619     2.1743     0.0299 C.ar         1    LIG   0.0000
   8 C8          -1.0508     3.5605     0.0596 C.ar         1    LIG   0.0000
   9 C9          -2.2113     4.3260     0.0876 C.ar         1    LIG   0.0000
  10 C10         -2.1087     5.8418     0.1203 C.3          1    LIG   0.0000
  11 C11         -3.4678     3.7297     0.0863 C.ar         1    LIG   0.0000
  12 C12         -3.5514     2.3417     0.0557 C.ar         1    LIG   0.0000
  13 C13         -4.9153     1.6716     0.0538 C.3          1    LIG   0.0000
  14 C14         -2.4063     1.5532     0.0278 C.ar         1    LIG   0.0000
  15 O15          1.2673     1.8330     0.0020 O.2          1    LIG   0.0000
  16 H            5.1703     0.9339    -1.9338 H            1    LIG   0.0000
  17 H            3.8156     0.0789    -2.2506 H            1    LIG   0.0000
  18 H            3.7616     1.7106    -2.2148 H            1    LIG   0.0000
  19 H           -0.1520     3.9989     0.0609 H            1    LIG   0.0000
  20 H           -3.0269     6.2377     0.1377 H            1    LIG   0.0000
  21 H           -1.6082     6.1245     0.9385 H            1    LIG   0.0000
  22 H           -1.6236     6.1607    -0.6940 H            1    LIG   0.0000
  23 H           -4.2965     4.2890     0.1070 H            1    LIG   0.0000
  24 H           -5.6301     2.3706     0.0758 H            1    LIG   0.0000
  25 H           -5.0143     1.1196    -0.7741 H            1    LIG   0.0000
  26 H           -4.9990     1.0838     0.8584 H            1    LIG   0.0000
  27 H           -2.4764     0.5559     0.0065 H            1    LIG   0.0000
@<TRIPOS>BOND
   1        1        2 1
   2        2        3 1
   3        3        4 2
   4        4        5 1
   5        5        6 2
   6        6        7 1
   7        7        8 ar
   8        8        9 ar
   9        9       10 1
  10        9       11 ar
  11       11       12 ar
  12       12       13 1
  13       12       14 ar
  14       14        7 ar
  15        6       15 1
  16       15        3 1
  17        1       16 1
  18        1       17 1
  19        1       18 1
  20        8       19 1
  21       10       20 1
  22       10       21 1
  23       10       22 1
  24       11       23 1
  25       13       24 1
  26       13       25 1
  27       13       26 1
  28       14       27 1

@<TRIPOS>MOLECULE

  27   28
SMALL
USER_CHARGES
@<TRIPOS>ATOM
   1 C1           4.2508    -0.9050    -0.0802 C.3          1    LIG   0.0000
   2 S2           3.7978     0.8469    -0.0387 S.3          1    LIG   0.0000
   3 C3           2.0590     0.7892    -0.0267 C.2          1    LIG   0.0000
   4 N4           1.3355    -0.3055    -0.0446 N.2          1    LIG   0.0000
   5 N5           0.0730     0.0552    -0.0280 N.2          1    LIG   0.0000
   6 C6           0.0415     1.3664     0.0019 C.2          1    LIG   0.0000
   7 C7          -1.1619     2.1743     0.0299 C.ar         1    LIG   0.0000
   8 C8          -1.2155     3.3422    -0.7237 C.ar         1    LIG   0.0000
   9 C9          -2.3741     4.1104    -0.6888 C.ar         1    LIG   0.0000
  10 C10         -2.4502     5.3894    -1.5059 C.3          1    LIG   0.0000
  11 C11         -3.4677     3.7300     0.0817 C.ar         1    LIG   0.0000
  12 C12         -3.3886     2.5576     0.8257 C.ar         1    LIG   0.0000
  13 C13         -4.5732     2.1252     1.6737 C.3          1    LIG   0.0000
  14 C14         -2.2416     1.7715     0.8085 C.ar         1    LIG   0.0000
  15 O15          1.2673     1.8330     0.0020 O.2          1    LIG   0.0000
  16 H            5.2470    -0.9916    -0.0896 H            1    LIG   0.0000
  17 H            3.8840    -1.3634     0.7294 H            1    LIG   0.0000
  18 H            3.8716    -1.3280    -0.9032 H            1    LIG   0.0000
  19 H           -0.4345     3.6244    -1.2808 H            1    LIG   0.0000
  20 H           -3.3431     5.8188    -1.3704 H            1    LIG   0.0000
  21 H           -1.7302     6.0172    -1.2102 H            1    LIG   0.0000
  22 H           -2.3275     5.1739    -2.4746 H            1    LIG   0.0000
  23 H           -4.2963     4.2896     0.1005 H            1    LIG   0.0000
  24 H           -5.3125     2.7917     1.5781 H            1    LIG   0.0000
  25 H           -4.8918     1.2279     1.3684 H            1    LIG   0.0000
  26 H           -4.2947     2.0716     2.6326 H            1    LIG   0.0000
  27 H           -2.1939     0.9304     1.3472 H            1    LIG   0.0000
@<TRIPOS>BOND
   1        1        2 1
   2        2        3 1
   3        3        4 2
   4        4        5 1
   5        5        6 2
   6        6        7 1
   7        7        8 ar
   8        8        9 ar
   9        9       10 1
  10        9       11 ar
  11       11       12 ar
  12       12       13 1
  13       12       14 ar
  14       14        7 ar
  15        6       15 1
  16       15        3 1
  17        1       16 1
  18        1       17 1
  19        1       18 1
  20        8       19 1
  21       10       20 1
  22       10       21 1
  23       10       22 1
  24       11       23 1
  25       13       24 1
  26       13       25 1
  27       13       26 1
  28       14       27 1

@<TRIPOS>MOLECULE

  27   28
SMALL
USER_CHARGES
@<TRIPOS>ATOM
   1 C1           4.1341     2.6250    -0.0027 C.3          1    LIG   0.0000
   2 S2           3.7978     0.8469    -0.0387 S.3          1    LIG   0.0000
   3 C3           2.0590     0.7892    -0.0267 C.2          1    LIG   0.0000
   4 N4           1.3355    -0.3055    -0.0446 N.2          1    LIG   0.0000
   5 N5           0.0730     0.0552    -0.0280 N.2          1    LIG   0.0000
   6 C6           0.0415     1.3664     0.0019 C.2          1    LIG   0.0000
   7 C7          -1.1619     2.1743     0.0299 C.ar         1    LIG   0.0000
   8 C8          -1.2155     3.3422    -0.7237 C.ar         1    LIG   0.0000
   9 C9          -2.3741     4.1104    -0.6888 C.ar         1    LIG   0.0000
  10 C10         -2.4502     5.3894    -1.5059 C.3          1    LIG   0.0000
  11 C11         -3.4677     3.7300     0.0817 C.ar         1    LIG   0.0000
  12 C12         -3.3886     2.5576     0.8257 C.ar         1    LIG   0.0000
  13 C13         -4.5732     2.1252     1.6737 C.3          1    LIG   0.0000
  14 C14         -2.2416     1.7715     0.8085 C.ar         1    LIG   0.0000
  15 O15          1.2673     1.8330     0.0020 O.2          1    LIG   0.0000
  16 H            5.1224     2.7775    -0.0069 H            1    LIG   0.0000
  17 H            3.7266     3.0577    -0.8069 H            1    LIG   0.0000
  18 H            3.7391     3.0222     0.8257 H            1    LIG   0.0000
  19 H           -0.4345     3.6244    -1.2808 H            1    LIG   0.0000
  20 H           -3.3431     5.8188    -1.3704 H            1    LIG   0.0000
  21 H           -1.7302     6.0172    -1.2102 H            1    LIG   0.0000
  22 H           -2.3275     5.1739    -2.4746 H            1    LIG   0.0000
  23 H           -4.2963     4.2896     0.1005 H            1    LIG   0.0000
  24 H           -5.3125     2.7917     1.5781 H            1    LIG   0.0000
  25 H           -4.8918     1.2279     1.3684 H            1    LIG   0.0000
  26 H           -4.2947     2.0716     2.6326 H            1    LIG   0.0000
  27 H           -2.1939     0.9304     1.3472 H            1    LIG   0.0000
@<TRIPOS>BOND
   1        1        2 1
   2        2        3 1
   3        3        4 2
   4        4        5 1
   5        5        6 2
   6        6        7 1
   7        7        8 ar
   8        8        9 ar
   9        9       10 1
  10        9       11 ar
  11       11       12 ar
  12       12       13 1
  13       12       14 ar
  14       14        7 ar
  15        6       15 1
  16       15        3 1
  17        1       16 1
  18        1       17 1
  19        1       18 1
  20        8       19 1
  21       10       20 1
  22       10       21 1
  23       10       22 1
  24       11       23 1
  25       13       24 1
  26       13       25 1
  27       13       26 1
  28       14       27 1

@<TRIPOS>MOLECULE

  27   28
SMALL
USER_CHARGES
@<TRIPOS>ATOM
   1 C1           4.2059     0.8217     1.7245 C.3          1    LIG   0.0000
   2 S2           3.7978     0.8469    -0.0387 S.3          1    LIG   0.0000
   3 C3           2.0590     0.7892    -0.0267 C.2          1    LIG   0.0000
   4 N4           1.3355    -0.3055    -0.0446 N.2          1    LIG   0.0000
   5 N5           0.0730     0.0552    -0.0280 N.2          1    LIG   0.0000
   6 C6           0.0415     1.3664     0.0019 C.2          1    LIG   0.0000
   7 C7          -1.1619     2.1743     0.0299 C.ar         1    LIG   0.0000
   8 C8          -1.2155     3.3422    -0.7237 C.ar         1    LIG   0.0000
   9 C9          -2.3741     4.1104    -0.6888 C.ar         1    LIG   0.0000
  10 C10         -2.4502     5.3894    -1.5059 C.3          1    LIG   0.0000
  11 C11         -3.4677     3.7300     0.0817 C.ar         1    LIG   0.0000
  12 C12         -3.3886     2.5576     0.8257 C.ar         1    LIG   0.0000
  13 C13         -4.5732     2.1252     1.6737 C.3          1    LIG   0.0000
  14 C14         -2.2416     1.7715     0.8085 C.ar         1    LIG   0.0000
  15 O15          1.2673     1.8330     0.0020 O.2          1    LIG   0.0000
  16 H            5.1990     0.8520     1.8373 H            1    LIG   0.0000
  17 H            3.7951     1.6154     2.1731 H            1    LIG   0.0000
  18 H            3.8490    -0.0163     2.1373 H            1    LIG   0.0000
  19 H           -0.4345     3.6244    -1.2808 H            1    LIG   0.0000
  20 H           -3.3431     5.8188    -1.3704 H            1    LIG   0.0000
  21 H           -1.7302     6.0172    -1.2102 H            1    LIG   0.0000
  22 H           -2.3275     5.1739    -2.4746 H            1    LIG   0.0000
  23 H           -4.2963     4.2896     0.1005 H            1    LIG   0.0000
  24 H           -5.3125     2.7917     1.5781 H            1    LIG   0.0000
  25 H           -4.8918     1.2279     1.3684 H            1    LIG   0.0000
  26 H           -4.2947     2.0716     2.6326 H            1    LIG   0.0000
  27 H           -2.1939     0.9304     1.3472 H            1    LIG   0.0000
@<TRIPOS>BOND
   1        1        2 1
   2        2        3 1
   3        3        4 2
   4        4        5 1
   5        5        6 2
   6        6        7 1
   7        7        8 ar
   8        8        9 ar
   9        9       10 1
  10        9       11 ar
  11       11       12 ar
  12       12       13 1
  13       12       14 ar
  14       14        7 ar
  15        6       15 1
  16       15        3 1
  17        1       16 1
  18        1       17 1
  19        1       18 1
  20        8       19 1
  21       10       20 1
  22       10       21 1
  23       10       22 1
  24       11       23 1
  25       13       24 1
  26       13       25 1
  27       13       26 1
  28       14       27 1

@<TRIPOS>MOLECULE

  27   28
SMALL
USER_CHARGES
@<TRIPOS>ATOM
   1 C1           4.1790     0.8983    -1.8073 C.3          1    LIG   0.0000
   2 S2           3.7978     0.8469    -0.0387 S.3          1    LIG   0.0000
   3 C3           2.0590     0.7892    -0.0267 C.2          1    LIG   0.0000
   4 N4           1.3355    -0.3055    -0.0446 N.2          1    LIG   0.0000
   5 N5           0.0730     0.0552    -0.0280 N.2          1    LIG   0.0000
   6 C6           0.0415     1.3664     0.0019 C.2          1    LIG   0.0000
   7 C7          -1.1619     2.1743     0.0299 C.ar         1    LIG   0.0000
   8 C8          -1.2155     3.3422    -0.7237 C.ar         1    LIG   0.0000
   9 C9          -2.3741     4.1104    -0.6888 C.ar         1    LIG   0.0000
  10 C10         -2.4502     5.3894    -1.5059 C.3          1    LIG   0.0000
  11 C11         -3.4677     3.7300     0.0817 C.ar         1    LIG   0.0000
  12 C12         -3.3886     2.5576     0.8257 C.ar         1    LIG   0.0000
  13 C13         -4.5732     2.1252     1.6737 C.3          1    LIG   0.0000
  14 C14         -2.2416     1.7715     0.8085 C.ar         1    LIG   0.0000
  15 O15          1.2673     1.8330     0.0020 O.2          1    LIG   0.0000
  16 H            5.1703     0.9339    -1.9338 H            1    LIG   0.0000
  17 H            3.8156     0.0789    -2.2506 H            1    LIG   0.0000
  18 H            3.7616     1.7106    -2.2148 H            1    LIG   0.0000
  19 H           -0.4345     3.6244    -1.2808 H            1    LIG   0.0000
  20 H           -3.3431     5.8188    -1.3704 H            1    LIG   0.0000
  21 H           -1.7302     6.0172    -1.2102 H            1    LIG   0.0000
  22 H           -2.3275     5.1739    -2.4746 H            1    LIG   0.0000
  23 H           -4.2963     4.2896     0.1005 H            1    LIG   0.0000
  24 H           -5.3125     2.7917     1.5781 H            1    LIG   0.0000
  25 H           -4.8918     1.2279     1.3684 H            1    LIG   0.0000
  26 H           -4.2947     2.0716     2.6326 H            1    LIG   0.0000
  27 H           -2.1939     0.9304     1.3472 H            1    LIG   0.0000
@<TRIPOS>BOND
   1        1        2 1
   2        2        3 1
   3        3        4 2
   4        4        5 1
   5        5        6 2
   6        6        7 1
   7        7        8 ar
   8        8        9 ar
   9        9       10 1
  10        9       11 ar
  11       11       12 ar
  12       12       13 1
  13       12       14 ar
  14       14        7 ar
  15        6       15 1
  16       15        3 1
  17        1       16 1
  18        1       17 1
  19        1       18 1
  20        8       19 1
  21       10       20 1
  22       10       21 1
  23       10       22 1
  24       11       23 1
  25       13       24 1
  26       13       25 1
  27       13       26 1
  28       14       27 1

@<TRIPOS>MOLECULE

  27   28
SMALL
USER_CHARGES
@<TRIPOS>ATOM
   1 C1           4.2508    -0.9050    -0.0802 C.3          1    LIG   0.0000
   2 S2           3.7978     0.8469    -0.0387 S.3          1    LIG   0.0000
   3 C3           2.0590     0.7892    -0.0267 C.2          1    LIG   0.0000
   4 N4           1.3355    -0.3055    -0.0446 N.2          1    LIG   0.0000
   5 N5           0.0730     0.0552    -0.0280 N.2          1    LIG   0.0000
   6 C6           0.0415     1.3664     0.0019 C.2          1    LIG   0.0000
   7 C7          -1.1619     2.1743     0.0299 C.ar         1    LIG   0.0000
   8 C8          -1.2025     3.3077     0.8352 C.ar         1    LIG   0.0000
   9 C9          -2.3621     4.0749     0.8557 C.ar         1    LIG   0.0000
  10 C10         -2.4240     5.3164     1.7296 C.3          1    LIG   0.0000
  11 C11         -3.4696     3.7270     0.0896 C.ar         1    LIG   0.0000
  12 C12         -3.4030     2.5892    -0.7075 C.ar         1    LIG   0.0000
  13 C13         -4.6028     2.1927    -1.5517 C.3          1    LIG   0.0000
  14 C14         -2.2555     1.8046    -0.7458 C.ar         1    LIG   0.0000
  15 O15          1.2673     1.8330     0.0020 O.2          1    LIG   0.0000
  16 H            5.2470    -0.9916    -0.0896 H            1    LIG   0.0000
  17 H            3.8840    -1.3634     0.7294 H            1    LIG   0.0000
  18 H            3.8716    -1.3280    -0.9032 H            1    LIG   0.0000
  19 H           -0.4116     3.5662     1.3898 H            1    LIG   0.0000
  20 H           -3.3196     5.7500     1.6298 H            1    LIG   0.0000
  21 H           -2.2832     5.0586     2.6855 H            1    LIG   0.0000
  22 H           -1.7101     5.9578     1.4487 H            1    LIG   0.0000
  23 H           -4.2991     4.2850     0.1115 H            1    LIG   0.0000
  24 H           -5.3405     2.8535    -1.4135 H            1    LIG   0.0000
  25 H           -4.3420     2.1813    -2.5170 H            1    LIG   0.0000
  26 H           -4.9153     1.2825    -1.2801 H            1    LIG   0.0000
  27 H           -2.2173     0.9880    -1.3216 H            1    LIG   0.0000
@<TRIPOS>BOND
   1        1        2 1
   2        2        3 1
   3        3        4 2
   4        4        5 1
   5        5        6 2
   6        6        7 1
   7        7        8 ar
   8        8        9 ar
   9        9       10 1
  10        9       11 ar
  11       11       12 ar
  12       12       13 1
  13       12       14 ar
  14       14        7 ar
  15        6       15 1
  16       15        3 1
  17        1       16 1
  18        1       17 1
  19        1       18 1
  20        8       19 1
  21       10       20 1
  22       10       21 1
  23       10       22 1
  24       11       23 1
  25       13       24 1
  26       13       25 1
  27       13       26 1
  28       14       27 1

@<TRIPOS>MOLECULE

  27   28
SMALL
USER_CHARGES
@<TRIPOS>ATOM
   1 C1           4.1341     2.6250    -0.0027 C.3          1    LIG   0.0000
   2 S2           3.7978     0.8469    -0.0387 S.3          1    LIG   0.0000
   3 C3           2.0590     0.7892    -0.0267 C.2          1    LIG   0.0000
   4 N4           1.3355    -0.3055    -0.0446 N.2          1    LIG   0.0000
   5 N5           0.0730     0.0552    -0.0280 N.2          1    LIG   0.0000
   6 C6           0.0415     1.3664     0.0019 C.2          1    LIG   0.0000
   7 C7          -1.1619     2.1743     0.0299 C.ar         1    LIG   0.0000
   8 C8          -1.2025     3.3077     0.8352 C.ar         1    LIG   0.0000
   9 C9          -2.3621     4.0749     0.8557 C.ar         1    LIG   0.0000
  10 C10         -2.4240     5.3164     1.7296 C.3          1    LIG   0.0000
  11 C11         -3.4696     3.7270     0.0896 C.ar         1    LIG   0.0000
  12 C12         -3.4030     2.5892    -0.7075 C.ar         1    LIG   0.0000
  13 C13         -4.6028     2.1927    -1.5517 C.3          1    LIG   0.0000
  14 C14         -2.2555     1.8046    -0.7458 C.ar         1    LIG   0.0000
  15 O15          1.2673     1.8330     0.0020 O.2          1    LIG   0.0000
  16 H            5.1224     2.7775    -0.0069 H            1    LIG   0.0000
  17 H            3.7266     3.0577    -0.8069 H            1    LIG   0.0000
  18 H            3.7391     3.0222     0.8257 H            1    LIG   0.0000
  19 H           -0.4116     3.5662     1.3898 H            1    LIG   0.0000
  20 H           -3.3196     5.7500     1.6298 H            1    LIG   0.0000
  21 H           -2.2832     5.0586     2.6855 H            1    LIG   0.0000
  22 H           -1.7101     5.9578     1.4487 H            1    LIG   0.0000
  23 H           -4.2991     4.2850     0.1115 H            1    LIG   0.0000
  24 H           -5.3405     2.8535    -1.4135 H            1    LIG   0.0000
  25 H           -4.3420     2.1813    -2.5170 H            1    LIG   0.0000
  26 H           -4.9153     1.2825    -1.2801 H            1    LIG   0.0000
  27 H           -2.2173     0.9880    -1.3216 H            1    LIG   0.0000
@<TRIPOS>BOND
   1        1        2 1
   2        2        3 1
   3        3        4 2
   4        4        5 1
   5        5        6 2
   6        6        7 1
   7        7        8 ar
   8        8        9 ar
   9        9       10 1
  10        9       11 ar
  11       11       12 ar
  12       12       13 1
  13       12       14 ar
  14       14        7 ar
  15        6       15 1
  16       15        3 1
  17        1       16 1
  18        1       17 1
  19        1       18 1
  20        8       19 1
  21       10       20 1
  22       10       21 1
  23       10       22 1
  24       11       23 1
  25       13       24 1
  26       13       25 1
  27       13       26 1
  28       14       27 1

@<TRIPOS>MOLECULE

  27   28
SMALL
USER_CHARGES
@<TRIPOS>ATOM
   1 C1           4.2059     0.8217     1.7245 C.3          1    LIG   0.0000
   2 S2           3.7978     0.8469    -0.0387 S.3          1    LIG   0.0000
   3 C3           2.0590     0.7892    -0.0267 C.2          1    LIG   0.0000
   4 N4           1.3355    -0.3055    -0.0446 N.2          1    LIG   0.0000
   5 N5           0.0730     0.0552    -0.0280 N.2          1    LIG   0.0000
   6 C6           0.0415     1.3664     0.0019 C.2          1    LIG   0.0000
   7 C7          -1.1619     2.1743     0.0299 C.ar         1    LIG   0.0000
   8 C8          -1.2025     3.3077     0.8352 C.ar         1    LIG   0.0000
   9 C9          -2.3621     4.0749     0.8557 C.ar         1    LIG   0.0000
  10 C10         -2.4240     5.3164     1.7296 C.3          1    LIG   0.0000
  11 C11         -3.4696     3.7270     0.0896 C.ar         1    LIG   0.0000
  12 C12         -3.4030     2.5892    -0.7075 C.ar         1    LIG   0.0000
  13 C13         -4.6028     2.1927    -1.5517 C.3          1    LIG   0.0000
  14 C14         -2.2555     1.8046    -0.7458 C.ar         1    LIG   0.0000
  15 O15          1.2673     1.8330     0.0020 O.2          1    LIG   0.0000
  16 H            5.1990     0.8520     1.8373 H            1    LIG   0.0000
  17 H            3.7951     1.6154     2.1731 H            1    LIG   0.0000
  18 H            3.8490    -0.0163     2.1373 H            1    LIG   0.0000
  19 H           -0.4116     3.5662     1.3898 H            1    LIG   0.0000
  20 H           -3.3196     5.7500     1.6298 H            1    LIG   0.0000
  21 H           -2.2832     5.0586     2.6855 H            1    LIG   0.0000
  22 H           -1.7101     5.9578     1.4487 H            1    LIG   0.0000
  23 H           -4.2991     4.2850     0.1115 H            1    LIG   0.0000
  24 H           -5.3405     2.8535    -1.4135 H            1    LIG   0.0000
  25 H           -4.3420     2.1813    -2.5170 H            1    LIG   0.0000
  26 H           -4.9153     1.2825    -1.2801 H            1    LIG   0.0000
  27 H           -2.2173     0.9880    -1.3216 H            1    LIG   0.0000
@<TRIPOS>BOND
   1        1        2 1
   2        2        3 1
   3        3        4 2
   4        4        5 1
   5        5        6 2
   6        6        7 1
   7        7        8 ar
   8        8        9 ar
   9        9       10 1
  10        9       11 ar
  11       11       12 ar
  12       12       13 1
  13       12       14 ar
  14       14        7 ar
  15        6       15 1
  16       15        3 1
  17        1       16 1
  18        1       17 1
  19        1       18 1
  20        8       19 1
  21       10       20 1
  22       10       21 1
  23       10       22 1
  24       11       23 1
  25       13       24 1
  26       13       25 1
  27       13       26 1
  28       14       27 1

@<TRIPOS>MOLECULE

  27   28
SMALL
USER_CHARGES
@<TRIPOS>ATOM
   1 C1           4.1790     0.8983    -1.8073 C.3          1    LIG   0.0000
   2 S2           3.7978     0.8469    -0.0387 S.3          1    LIG   0.0000
   3 C3           2.0590     0.7892    -0.0267 C.2          1    LIG   0.0000
   4 N4           1.3355    -0.3055    -0.0446 N.2          1    LIG   0.0000
   5 N5           0.0730     0.0552    -0.0280 N.2          1    LIG   0.0000
   6 C6           0.0415     1.3664     0.0019 C.2          1    LIG   0.0000
   7 C7          -1.1619     2.1743     0.0299 C.ar         1    LIG   0.0000
   8 C8          -1.2025     3.3077     0.8352 C.ar         1    LIG   0.0000
   9 C9          -2.3621     4.0749     0.8557 C.ar         1    LIG   0.0000
  10 C10         -2.4240     5.3164     1.7296 C.3          1    LIG   0.0000
  11 C11         -3.4696     3.7270     0.0896 C.ar         1    LIG   0.0000
  12 C12         -3.4030     2.5892    -0.7075 C.ar         1    LIG   0.0000
  13 C13         -4.6028     2.1927    -1.5517 C.3          1    LIG   0.0000
  14 C14         -2.2555     1.8046    -0.7458 C.ar         1    LIG   0.0000
  15 O15          1.2673     1.8330     0.0020 O.2          1    LIG   0.0000
  16 H            5.1703     0.9339    -1.9338 H            1    LIG   0.0000
  17 H            3.8156     0.0789    -2.2506 H            1    LIG   0.0000
  18 H            3.7616     1.7106    -2.2148 H            1    LIG   0.0000
  19 H           -0.4116     3.5662     1.3898 H            1    LIG   0.0000
  20 H           -3.3196     5.7500     1.6298 H            1    LIG   0.0000
  21 H           -2.2832     5.0586     2.6855 H            1    LIG   0.0000
  22 H           -1.7101     5.9578     1.4487 H            1    LIG   0.0000
  23 H           -4.2991     4.2850     0.1115 H            1    LIG   0.0000
  24 H           -5.3405     2.8535    -1.4135 H            1    LIG   0.0000
  25 H           -4.3420     2.1813    -2.5170 H            1    LIG   0.0000
  26 H           -4.9153     1.2825    -1.2801 H            1    LIG   0.0000
  27 H           -2.2173     0.9880    -1.3216 H            1    LIG   0.0000
@<TRIPOS>BOND
   1        1        2 1
   2        2        3 1
   3        3        4 2
   4        4        5 1
   5        5        6 2
   6        6        7 1
   7        7        8 ar
   8        8        9 ar
   9        9       10 1
  10        9       11 ar
  11       11       12 ar
  12       12       13 1
  13       12       14 ar
  14       14        7 ar
  15        6       15 1
  16       15        3 1
  17        1       16 1
  18        1       17 1
  19        1       18 1
  20        8       19 1
  21       10       20 1
  22       10       21 1
  23       10       22 1
  24       11       23 1
  25       13       24 1
  26       13       25 1
  27       13       26 1
  28       14       27 1

@<TRIPOS>MOLECULE

  27   28
SMALL
USER_CHARGES
@<TRIPOS>ATOM
   1 C1           4.2402    -0.3039     1.2865 C.3          1    LIG   0.0000
   2 S2           3.7978     0.8469    -0.0387 S.3          1    LIG   0.0000
   3 C3           2.0590     0.7892    -0.0267 C.2          1    LIG   0.0000
   4 N4           1.3355    -0.3055    -0.0446 N.2          1    LIG   0.0000
   5 N5           0.0730     0.0552    -0.0280 N.2          1    LIG   0.0000
   6 C6           0.0415     1.3664     0.0019 C.2          1    LIG   0.0000
   7 C7          -1.1619     2.1743     0.0299 C.ar         1    LIG   0.0000
   8 C8          -1.3977     3.0803    -0.9988 C.ar         1    LIG   0.0000
   9 C9          -2.5544     3.8513    -0.9617 C.ar         1    LIG   0.0000
  10 C10         -2.8282     4.8462    -2.0772 C.3          1    LIG   0.0000
  11 C11         -3.4683     3.7292     0.0796 C.ar         1    LIG   0.0000
  12 C12         -3.2092     2.8155     1.0957 C.ar         1    LIG   0.0000
  13 C13         -4.1958     2.6677     2.2420 C.3          1    LIG   0.0000
  14 C14         -2.0598     2.0329     1.0825 C.ar         1    LIG   0.0000
  15 O15          1.2673     1.8330     0.0020 O.2          1    LIG   0.0000
  16 H            5.2357    -0.3498     1.3696 H            1    LIG   0.0000
  17 H            3.8480     0.0147     2.1494 H            1    LIG   0.0000
  18 H            3.8814    -1.2124     1.0726 H            1    LIG   0.0000
  19 H           -0.7467     3.1757    -1.7519 H            1    LIG   0.0000
  20 H           -3.6935     5.3153    -1.9006 H            1    LIG   0.0000
  21 H           -2.0872     5.5166    -2.1152 H            1    LIG   0.0000
  22 H           -2.8840     4.3613    -2.9500 H            1    LIG   0.0000
  23 H           -4.2971     4.2885     0.0975 H            1    LIG   0.0000
  24 H           -4.9624     3.2950     2.1050 H            1    LIG   0.0000
  25 H           -4.5354     1.7276     2.2703 H            1    LIG   0.0000
  26 H           -3.7388     2.8832     3.1049 H            1    LIG   0.0000
  27 H           -1.8818     1.3790     1.8178 H            1    LIG   0.0000
@<TRIPOS>BOND
   1        1        2 1
   2        2        3 1
   3        3        4 2
   4        4        5 1
   5        5        6 2
   6        6        7 1
   7        7        8 ar
   8        8        9 ar
   9        9       10 1
  10        9       11 ar
  11       11       12 ar
  12       12       13 1
  13       12       14 ar
  14       14        7 ar
  15        6       15 1
  16       15        3 1
  17        1       16 1
  18        1       17 1
  19        1       18 1
  20        8       19 1
  21       10       20 1
  22       10       21 1
  23       10       22 1
  24       11       23 1
  25       13       24 1
  26       13       25 1
  27       13       26 1
  28       14       27 1

@<TRIPOS>MOLECULE

  27   28
SMALL
USER_CHARGES
@<TRIPOS>ATOM
   1 C1           4.2196    -0.2452    -1.4191 C.3          1    LIG   0.0000
   2 S2           3.7978     0.8469    -0.0387 S.3          1    LIG   0.0000
   3 C3           2.0590     0.7892    -0.0267 C.2          1    LIG   0.0000
   4 N4           1.3355    -0.3055    -0.0446 N.2          1    LIG   0.0000
   5 N5           0.0730     0.0552    -0.0280 N.2          1    LIG   0.0000
   6 C6           0.0415     1.3664     0.0019 C.2          1    LIG   0.0000
   7 C7          -1.1619     2.1743     0.0299 C.ar         1    LIG   0.0000
   8 C8          -1.3801     3.0338     1.1015 C.ar         1    LIG   0.0000
   9 C9          -2.5382     3.8033     1.1191 C.ar         1    LIG   0.0000
  10 C10         -2.7929     4.7478     2.2820 C.3          1    LIG   0.0000
  11 C11         -3.4708     3.7251     0.0902 C.ar         1    LIG   0.0000
  12 C12         -3.2286     2.8581    -0.9700 C.ar         1    LIG   0.0000
  13 C13         -4.2357     2.7587    -2.1036 C.3          1    LIG   0.0000
  14 C14         -2.0786     2.0774    -1.0116 C.ar         1    LIG   0.0000
  15 O15          1.2673     1.8330     0.0020 O.2          1    LIG   0.0000
  16 H            5.2137    -0.2871    -1.5193 H            1    LIG   0.0000
  17 H            3.8637    -1.1623    -1.2394 H            1    LIG   0.0000
  18 H            3.8144     0.1105    -2.2613 H            1    LIG   0.0000
  19 H           -0.7158     3.0972     1.8462 H            1    LIG   0.0000
  20 H           -3.6618     5.2225     2.1417 H            1    LIG   0.0000
  21 H           -2.8324     4.2251     3.1335 H            1    LIG   0.0000
  22 H           -2.0522     5.4175     2.3359 H            1    LIG   0.0000
  23 H           -4.3009     4.2824     0.1123 H            1    LIG   0.0000
  24 H           -5.0002     3.3783    -1.9256 H            1    LIG   0.0000
  25 H           -3.7946     3.0122    -2.9645 H            1    LIG   0.0000
  26 H           -4.5750     1.8201    -2.1666 H            1    LIG   0.0000
  27 H           -1.9133     1.4565    -1.7778 H            1    LIG   0.0000
@<TRIPOS>BOND
   1        1        2 1
   2        2        3 1
   3        3        4 2
   4        4        5 1
   5        5        6 2
   6        6        7 1
   7        7        8 ar
   8        8        9 ar
   9        9       10 1
  10        9       11 ar
  11       11       12 ar
  12       12       13 1
  13       12       14 ar
  14       14        7 ar
  15        6       15 1
  16       15        3 1
  17        1       16 1
  18        1       17 1
  19        1       18 1
  20        8       19 1
  21       10       20 1
  22       10       21 1
  23       10       22 1
  24       11       23 1
  25       13       24 1
  26       13       25 1
  27       13       26 1
  28       14       27 1

