@<TRIPOS>MOLECULE
*****
 27 28 0 0 0
SMALL
USER_CHARGES

@<TRIPOS>ATOM
      1 C1          4.2402   -0.3039    1.2865 C.3     1  LIG1        0.0000
      2 S2          3.7978    0.8469   -0.0387 S.3     1  LIG1        0.0000
      3 C3          2.0590    0.7892   -0.0267 C.2     1  LIG1        0.0000
      4 N4          1.3355   -0.3055   -0.0446 N.2     1  LIG1        0.0000
      5 N5          0.0730    0.0552   -0.0280 N.2     1  LIG1        0.0000
      6 C6          0.0415    1.3664    0.0019 C.2     1  LIG1        0.0000
      7 C7         -1.1619    2.1743    0.0299 C.ar    1  LIG1        0.0000
      8 C8         -1.3977    3.0803   -0.9988 C.ar    1  LIG1        0.0000
      9 C9         -2.5544    3.8513   -0.9617 C.ar    1  LIG1        0.0000
     10 C10        -2.8282    4.8462   -2.0772 C.3     1  LIG1        0.0000
     11 C11        -3.4683    3.7292    0.0796 C.ar    1  LIG1        0.0000
     12 C12        -3.2092    2.8155    1.0957 C.ar    1  LIG1        0.0000
     13 C13        -4.1958    2.6677    2.2420 C.3     1  LIG1        0.0000
     14 C14        -2.0598    2.0329    1.0825 C.ar    1  LIG1        0.0000
     15 O15         1.2673    1.8330    0.0020 O.2     1  LIG1        0.0000
     16 H           5.2357   -0.3498    1.3696 H       1  LIG1        0.0000
     17 H           3.8480    0.0147    2.1494 H       1  LIG1        0.0000
     18 H           3.8814   -1.2124    1.0726 H       1  LIG1        0.0000
     19 H          -0.7467    3.1757   -1.7519 H       1  LIG1        0.0000
     20 H          -3.6935    5.3153   -1.9006 H       1  LIG1        0.0000
     21 H          -2.0872    5.5166   -2.1152 H       1  LIG1        0.0000
     22 H          -2.8840    4.3613   -2.9500 H       1  LIG1        0.0000
     23 H          -4.2971    4.2885    0.0975 H       1  LIG1        0.0000
     24 H          -4.9624    3.2950    2.1050 H       1  LIG1        0.0000
     25 H          -4.5354    1.7276    2.2703 H       1  LIG1        0.0000
     26 H          -3.7388    2.8832    3.1049 H       1  LIG1        0.0000
     27 H          -1.8818    1.3790    1.8178 H       1  LIG1        0.0000
@<TRIPOS>BOND
     1     1     2    1
     2     2     3    1
     3     3     4    2
     4     4     5    1
     5     5     6    2
     6     6     7    1
     7     7     8   ar
     8     8     9   ar
     9     9    10    1
    10     9    11   ar
    11    11    12   ar
    12    12    13    1
    13    12    14   ar
    14    14     7   ar
    15     6    15    1
    16    15     3    1
    17     1    16    1
    18     1    17    1
    19     1    18    1
    20     8    19    1
    21    10    20    1
    22    10    21    1
    23    10    22    1
    24    11    23    1
    25    13    24    1
    26    13    25    1
    27    13    26    1
    28    14    27    1
