@<TRIPOS>MOLECULE
*****
 27 28 0 0 0
SMALL
USER_CHARGES

@<TRIPOS>ATOM
      1 C1          4.2196   -0.2452   -1.4191 C.3     1  LIG1        0.0000
      2 S2          3.7978    0.8469   -0.0387 S.3     1  LIG1        0.0000
      3 C3          2.0590    0.7892   -0.0267 C.2     1  LIG1        0.0000
      4 N4          1.3355   -0.3055   -0.0446 N.2     1  LIG1        0.0000
      5 N5          0.0730    0.0552   -0.0280 N.2     1  LIG1        0.0000
      6 C6          0.0415    1.3664    0.0019 C.2     1  LIG1        0.0000
      7 C7         -1.1619    2.1743    0.0299 C.ar    1  LIG1        0.0000
      8 C8         -1.3801    3.0338    1.1015 C.ar    1  LIG1        0.0000
      9 C9         -2.5382    3.8033    1.1191 C.ar    1  LIG1        0.0000
     10 C10        -2.7929    4.7478    2.2820 C.3     1  LIG1        0.0000
     11 C11        -3.4708    3.7251    0.0902 C.ar    1  LIG1        0.0000
     12 C12        -3.2286    2.8581   -0.9700 C.ar    1  LIG1        0.0000
     13 C13        -4.2357    2.7587   -2.1036 C.3     1  LIG1        0.0000
     14 C14        -2.0786    2.0774   -1.0116 C.ar    1  LIG1        0.0000
     15 O15         1.2673    1.8330    0.0020 O.2     1  LIG1        0.0000
     16 H           5.2137   -0.2871   -1.5193 H       1  LIG1        0.0000
     17 H           3.8637   -1.1623   -1.2394 H       1  LIG1        0.0000
     18 H           3.8144    0.1105   -2.2613 H       1  LIG1        0.0000
     19 H          -0.7158    3.0972    1.8462 H       1  LIG1        0.0000
     20 H          -3.6618    5.2225    2.1417 H       1  LIG1        0.0000
     21 H          -2.8324    4.2251    3.1335 H       1  LIG1        0.0000
     22 H          -2.0522    5.4175    2.3359 H       1  LIG1        0.0000
     23 H          -4.3009    4.2824    0.1123 H       1  LIG1        0.0000
     24 H          -5.0002    3.3783   -1.9256 H       1  LIG1        0.0000
     25 H          -3.7946    3.0122   -2.9645 H       1  LIG1        0.0000
     26 H          -4.5750    1.8201   -2.1666 H       1  LIG1        0.0000
     27 H          -1.9133    1.4565   -1.7778 H       1  LIG1        0.0000
@<TRIPOS>BOND
     1     1     2    1
     2     2     3    1
     3     3     4    2
     4     4     5    1
     5     5     6    2
     6     6     7    1
     7     7     8   ar
     8     8     9   ar
     9     9    10    1
    10     9    11   ar
    11    11    12   ar
    12    12    13    1
    13    12    14   ar
    14    14     7   ar
    15     6    15    1
    16    15     3    1
    17     1    16    1
    18     1    17    1
    19     1    18    1
    20     8    19    1
    21    10    20    1
    22    10    21    1
    23    10    22    1
    24    11    23    1
    25    13    24    1
    26    13    25    1
    27    13    26    1
    28    14    27    1
