@<TRIPOS>MOLECULE
*****
 27 28 0 0 0
SMALL
USER_CHARGES

@<TRIPOS>ATOM
      1 C1          4.1790    0.8983   -1.8073 C.3     1  LIG1        0.0000
      2 S2          3.7978    0.8469   -0.0387 S.3     1  LIG1        0.0000
      3 C3          2.0590    0.7892   -0.0267 C.2     1  LIG1        0.0000
      4 N4          1.3355   -0.3055   -0.0446 N.2     1  LIG1        0.0000
      5 N5          0.0730    0.0552   -0.0280 N.2     1  LIG1        0.0000
      6 C6          0.0415    1.3664    0.0019 C.2     1  LIG1        0.0000
      7 C7         -1.1619    2.1743    0.0299 C.ar    1  LIG1        0.0000
      8 C8         -1.2155    3.3422   -0.7237 C.ar    1  LIG1        0.0000
      9 C9         -2.3741    4.1104   -0.6888 C.ar    1  LIG1        0.0000
     10 C10        -2.4502    5.3894   -1.5059 C.3     1  LIG1        0.0000
     11 C11        -3.4677    3.7300    0.0817 C.ar    1  LIG1        0.0000
     12 C12        -3.3886    2.5576    0.8257 C.ar    1  LIG1        0.0000
     13 C13        -4.5732    2.1252    1.6737 C.3     1  LIG1        0.0000
     14 C14        -2.2416    1.7715    0.8085 C.ar    1  LIG1        0.0000
     15 O15         1.2673    1.8330    0.0020 O.2     1  LIG1        0.0000
     16 H           5.1703    0.9339   -1.9338 H       1  LIG1        0.0000
     17 H           3.8156    0.0789   -2.2506 H       1  LIG1        0.0000
     18 H           3.7616    1.7106   -2.2148 H       1  LIG1        0.0000
     19 H          -0.4345    3.6244   -1.2808 H       1  LIG1        0.0000
     20 H          -3.3431    5.8188   -1.3704 H       1  LIG1        0.0000
     21 H          -1.7302    6.0172   -1.2102 H       1  LIG1        0.0000
     22 H          -2.3275    5.1739   -2.4746 H       1  LIG1        0.0000
     23 H          -4.2963    4.2896    0.1005 H       1  LIG1        0.0000
     24 H          -5.3125    2.7917    1.5781 H       1  LIG1        0.0000
     25 H          -4.8918    1.2279    1.3684 H       1  LIG1        0.0000
     26 H          -4.2947    2.0716    2.6326 H       1  LIG1        0.0000
     27 H          -2.1939    0.9304    1.3472 H       1  LIG1        0.0000
@<TRIPOS>BOND
     1     1     2    1
     2     2     3    1
     3     3     4    2
     4     4     5    1
     5     5     6    2
     6     6     7    1
     7     7     8   ar
     8     8     9   ar
     9     9    10    1
    10     9    11   ar
    11    11    12   ar
    12    12    13    1
    13    12    14   ar
    14    14     7   ar
    15     6    15    1
    16    15     3    1
    17     1    16    1
    18     1    17    1
    19     1    18    1
    20     8    19    1
    21    10    20    1
    22    10    21    1
    23    10    22    1
    24    11    23    1
    25    13    24    1
    26    13    25    1
    27    13    26    1
    28    14    27    1
