@<TRIPOS>MOLECULE
*****
 27 28 0 0 0
SMALL
USER_CHARGES

@<TRIPOS>ATOM
      1 C1          4.2059    0.8217    1.7245 C.3     1  LIG1        0.0000
      2 S2          3.7978    0.8469   -0.0387 S.3     1  LIG1        0.0000
      3 C3          2.0590    0.7892   -0.0267 C.2     1  LIG1        0.0000
      4 N4          1.3355   -0.3055   -0.0446 N.2     1  LIG1        0.0000
      5 N5          0.0730    0.0552   -0.0280 N.2     1  LIG1        0.0000
      6 C6          0.0415    1.3664    0.0019 C.2     1  LIG1        0.0000
      7 C7         -1.1619    2.1743    0.0299 C.ar    1  LIG1        0.0000
      8 C8         -1.2025    3.3077    0.8352 C.ar    1  LIG1        0.0000
      9 C9         -2.3621    4.0749    0.8557 C.ar    1  LIG1        0.0000
     10 C10        -2.4240    5.3164    1.7296 C.3     1  LIG1        0.0000
     11 C11        -3.4696    3.7270    0.0896 C.ar    1  LIG1        0.0000
     12 C12        -3.4030    2.5892   -0.7075 C.ar    1  LIG1        0.0000
     13 C13        -4.6028    2.1927   -1.5517 C.3     1  LIG1        0.0000
     14 C14        -2.2555    1.8046   -0.7458 C.ar    1  LIG1        0.0000
     15 O15         1.2673    1.8330    0.0020 O.2     1  LIG1        0.0000
     16 H           5.1990    0.8520    1.8373 H       1  LIG1        0.0000
     17 H           3.7951    1.6154    2.1731 H       1  LIG1        0.0000
     18 H           3.8490   -0.0163    2.1373 H       1  LIG1        0.0000
     19 H          -0.4116    3.5662    1.3898 H       1  LIG1        0.0000
     20 H          -3.3196    5.7500    1.6298 H       1  LIG1        0.0000
     21 H          -2.2832    5.0586    2.6855 H       1  LIG1        0.0000
     22 H          -1.7101    5.9578    1.4487 H       1  LIG1        0.0000
     23 H          -4.2991    4.2850    0.1115 H       1  LIG1        0.0000
     24 H          -5.3405    2.8535   -1.4135 H       1  LIG1        0.0000
     25 H          -4.3420    2.1813   -2.5170 H       1  LIG1        0.0000
     26 H          -4.9153    1.2825   -1.2801 H       1  LIG1        0.0000
     27 H          -2.2173    0.9880   -1.3216 H       1  LIG1        0.0000
@<TRIPOS>BOND
     1     1     2    1
     2     2     3    1
     3     3     4    2
     4     4     5    1
     5     5     6    2
     6     6     7    1
     7     7     8   ar
     8     8     9   ar
     9     9    10    1
    10     9    11   ar
    11    11    12   ar
    12    12    13    1
    13    12    14   ar
    14    14     7   ar
    15     6    15    1
    16    15     3    1
    17     1    16    1
    18     1    17    1
    19     1    18    1
    20     8    19    1
    21    10    20    1
    22    10    21    1
    23    10    22    1
    24    11    23    1
    25    13    24    1
    26    13    25    1
    27    13    26    1
    28    14    27    1
