@<TRIPOS>MOLECULE
*****
 27 28 0 0 0
SMALL
USER_CHARGES

@<TRIPOS>ATOM
      1 C1          4.1790    0.8983   -1.8073 C.3     1  LIG1        0.0000
      2 S2          3.7978    0.8469   -0.0387 S.3     1  LIG1        0.0000
      3 C3          2.0590    0.7892   -0.0267 C.2     1  LIG1        0.0000
      4 N4          1.3355   -0.3055   -0.0446 N.2     1  LIG1        0.0000
      5 N5          0.0730    0.0552   -0.0280 N.2     1  LIG1        0.0000
      6 C6          0.0415    1.3664    0.0019 C.2     1  LIG1        0.0000
      7 C7         -1.1619    2.1743    0.0299 C.ar    1  LIG1        0.0000
      8 C8         -1.0508    3.5605    0.0596 C.ar    1  LIG1        0.0000
      9 C9         -2.2113    4.3260    0.0876 C.ar    1  LIG1        0.0000
     10 C10        -2.1087    5.8418    0.1203 C.3     1  LIG1        0.0000
     11 C11        -3.4678    3.7297    0.0863 C.ar    1  LIG1        0.0000
     12 C12        -3.5514    2.3417    0.0557 C.ar    1  LIG1        0.0000
     13 C13        -4.9153    1.6716    0.0538 C.3     1  LIG1        0.0000
     14 C14        -2.4063    1.5532    0.0278 C.ar    1  LIG1        0.0000
     15 O15         1.2673    1.8330    0.0020 O.2     1  LIG1        0.0000
     16 H           5.1703    0.9339   -1.9338 H       1  LIG1        0.0000
     17 H           3.8156    0.0789   -2.2506 H       1  LIG1        0.0000
     18 H           3.7616    1.7106   -2.2148 H       1  LIG1        0.0000
     19 H          -0.1520    3.9989    0.0609 H       1  LIG1        0.0000
     20 H          -3.0269    6.2377    0.1377 H       1  LIG1        0.0000
     21 H          -1.6082    6.1245    0.9385 H       1  LIG1        0.0000
     22 H          -1.6236    6.1607   -0.6940 H       1  LIG1        0.0000
     23 H          -4.2965    4.2890    0.1070 H       1  LIG1        0.0000
     24 H          -5.6301    2.3706    0.0758 H       1  LIG1        0.0000
     25 H          -5.0143    1.1196   -0.7741 H       1  LIG1        0.0000
     26 H          -4.9990    1.0838    0.8584 H       1  LIG1        0.0000
     27 H          -2.4764    0.5559    0.0065 H       1  LIG1        0.0000
@<TRIPOS>BOND
     1     1     2    1
     2     2     3    1
     3     3     4    2
     4     4     5    1
     5     5     6    2
     6     6     7    1
     7     7     8   ar
     8     8     9   ar
     9     9    10    1
    10     9    11   ar
    11    11    12   ar
    12    12    13    1
    13    12    14   ar
    14    14     7   ar
    15     6    15    1
    16    15     3    1
    17     1    16    1
    18     1    17    1
    19     1    18    1
    20     8    19    1
    21    10    20    1
    22    10    21    1
    23    10    22    1
    24    11    23    1
    25    13    24    1
    26    13    25    1
    27    13    26    1
    28    14    27    1
