@<TRIPOS>MOLECULE

  39   41
SMALL
USER_CHARGES
@<TRIPOS>ATOM
   1 C1           5.3582    -3.1450     3.3768 C.3          1    LIG   0.0000
   2 O2           4.5519    -2.1311     2.7953 O.3          1    LIG   0.0000
   3 C3           5.2049    -1.1461     2.2301 C.2          1    LIG   0.0000
   4 O4           6.4049    -1.1444     2.2289 O.2          1    LIG   0.0000
   5 C5           4.4775    -0.0576     1.6058 C.ar         1    LIG   0.0000
   6 C6           5.1712     0.9890     1.0057 C.ar         1    LIG   0.0000
   7 Cl7          6.9509     1.0159     0.9899 Cl           1    LIG   0.0000
   8 C8           4.4894     2.0408     0.4023 C.ar         1    LIG   0.0000
   9 C9           3.0981     2.0437     0.4013 C.ar         1    LIG   0.0000
  10 C10          2.3998     1.0000     1.0000 C.ar         1    LIG   0.0000
  11 N11          1.0000     1.0000     1.0000 N.am         1    LIG   0.0000
  12 C12          0.3150     2.1864     1.0039 C.2          1    LIG   0.0000
  13 O13          0.9150     3.2257     1.0073 O.2          1    LIG   0.0000
  14 C14         -1.2062     2.1864     1.0039 C.3          1    LIG   0.0000
  15 C15         -1.7276     1.4145    -0.1978 C.3          1    LIG   0.0000
  16 C16         -1.7721     3.5906     1.0085 C.3          1    LIG   0.0000
  17 C17         -2.5311     3.7362     2.3166 C.3          1    LIG   0.0000
  18 C18         -3.8069     3.4794     3.0770 C.3          1    LIG   0.0000
  19 C19         -3.0754     2.3581     2.3972 C.3          1    LIG   0.0000
  20 C20         -1.7493     1.6334     2.3111 C.3          1    LIG   0.0000
  21 C21          3.0861    -0.0497     1.6014 C.ar         1    LIG   0.0000
  22 Cl22         2.1844    -1.3811     2.3654 Cl           1    LIG   0.0000
  23 H           -1.8203     3.7688     3.0192 H            1    LIG   0.0000
  24 H           -3.5513     2.1874     1.5344 H            1    LIG   0.0000
  25 H            4.7714    -3.8474     3.7798 H            1    LIG   0.0000
  26 H            5.9354    -3.5572     2.6718 H            1    LIG   0.0000
  27 H            5.9356    -2.7446     4.0883 H            1    LIG   0.0000
  28 H            4.9952     2.7888    -0.0273 H            1    LIG   0.0000
  29 H            2.6000     2.7961    -0.0298 H            1    LIG   0.0000
  30 H            0.5000     0.1340     0.9972 H            1    LIG   0.0000
  31 H           -2.7276     1.4200    -0.1892 H            1    LIG   0.0000
  32 H           -1.3991     1.8448    -1.0385 H            1    LIG   0.0000
  33 H           -1.3991     0.4709    -0.1559 H            1    LIG   0.0000
  34 H           -2.3902     3.7180     0.2328 H            1    LIG   0.0000
  35 H           -1.0331     4.2625     0.9597 H            1    LIG   0.0000
  36 H           -4.6813     3.8014     2.7141 H            1    LIG   0.0000
  37 H           -3.8176     3.5398     4.0751 H            1    LIG   0.0000
  38 H           -1.1548     1.8612     3.0823 H            1    LIG   0.0000
  39 H           -1.8739     0.6421     2.2677 H            1    LIG   0.0000
@<TRIPOS>BOND
   1        1        2 1
   2        2        3 1
   3        3        4 2
   4        3        5 1
   5        5        6 ar
   6        6        7 1
   7        6        8 ar
   8        8        9 ar
   9        9       10 ar
  10       10       11 1
  11       11       12 am
  12       12       13 2
  13       12       14 1
  14       14       15 1
  15       14       16 1
  16       16       17 1
  17       17       18 1
  18       18       19 1
  19       19       17 1
  20       19       20 1
  21       20       14 1
  22       10       21 ar
  23       21        5 ar
  24       21       22 1
  25       17       23 1
  26       19       24 1
  27        1       25 1
  28        1       26 1
  29        1       27 1
  30        8       28 1
  31        9       29 1
  32       11       30 1
  33       15       31 1
  34       15       32 1
  35       15       33 1
  36       16       34 1
  37       16       35 1
  38       18       36 1
  39       18       37 1
  40       20       38 1
  41       20       39 1

@<TRIPOS>MOLECULE

  39   41
SMALL
USER_CHARGES
@<TRIPOS>ATOM
   1 C1           5.3582    -3.1450     3.3768 C.3          1    LIG   0.0000
   2 O2           4.5519    -2.1311     2.7953 O.3          1    LIG   0.0000
   3 C3           5.2049    -1.1461     2.2301 C.2          1    LIG   0.0000
   4 O4           6.4049    -1.1444     2.2289 O.2          1    LIG   0.0000
   5 C5           4.4775    -0.0576     1.6058 C.ar         1    LIG   0.0000
   6 C6           5.1712     0.9890     1.0057 C.ar         1    LIG   0.0000
   7 Cl7          6.9509     1.0159     0.9899 Cl           1    LIG   0.0000
   8 C8           4.4894     2.0408     0.4023 C.ar         1    LIG   0.0000
   9 C9           3.0981     2.0437     0.4013 C.ar         1    LIG   0.0000
  10 C10          2.3998     1.0000     1.0000 C.ar         1    LIG   0.0000
  11 N11          1.0000     1.0000     1.0000 N.am         1    LIG   0.0000
  12 C12          0.3150     2.1864     1.0039 C.2          1    LIG   0.0000
  13 O13          0.9150     3.2257     1.0073 O.2          1    LIG   0.0000
  14 C14         -1.2062     2.1864     1.0039 C.3          1    LIG   0.0000
  15 C15         -1.7276     1.5318     2.2733 C.3          1    LIG   0.0000
  16 C16         -1.7721     1.4884    -0.2144 C.3          1    LIG   0.0000
  17 C17         -2.5311     2.5484    -0.9946 C.3          1    LIG   0.0000
  18 C18         -3.8069     3.3353    -1.1523 C.3          1    LIG   0.0000
  19 C19         -3.0754     3.3072     0.1586 C.3          1    LIG   0.0000
  20 C20         -1.7493     3.5951     0.8293 C.3          1    LIG   0.0000
  21 C21          3.0861    -0.0497     1.6014 C.ar         1    LIG   0.0000
  22 Cl22         2.1844    -1.3811     2.3654 Cl           1    LIG   0.0000
  23 H           -1.8203     3.1406    -1.3741 H            1    LIG   0.0000
  24 H           -3.5513     2.6454     0.7378 H            1    LIG   0.0000
  25 H            4.7714    -3.8474     3.7798 H            1    LIG   0.0000
  26 H            5.9354    -3.5572     2.6718 H            1    LIG   0.0000
  27 H            5.9356    -2.7446     4.0883 H            1    LIG   0.0000
  28 H            4.9952     2.7888    -0.0273 H            1    LIG   0.0000
  29 H            2.6000     2.7961    -0.0298 H            1    LIG   0.0000
  30 H            0.5000     0.1340     0.9972 H            1    LIG   0.0000
  31 H           -2.7276     1.5365     2.2642 H            1    LIG   0.0000
  32 H           -1.3991     0.5885     2.3210 H            1    LIG   0.0000
  33 H           -1.3991     2.0398     3.0695 H            1    LIG   0.0000
  34 H           -2.3902     0.7529     0.0631 H            1    LIG   0.0000
  35 H           -1.0331     1.1101    -0.7719 H            1    LIG   0.0000
  36 H           -4.6813     2.8601    -1.2498 H            1    LIG   0.0000
  37 H           -3.8176     4.1695    -1.7038 H            1    LIG   0.0000
  38 H           -1.1548     4.1490     0.2464 H            1    LIG   0.0000
  39 H           -1.8739     4.0531     1.7094 H            1    LIG   0.0000
@<TRIPOS>BOND
   1        1        2 1
   2        2        3 1
   3        3        4 2
   4        3        5 1
   5        5        6 ar
   6        6        7 1
   7        6        8 ar
   8        8        9 ar
   9        9       10 ar
  10       10       11 1
  11       11       12 am
  12       12       13 2
  13       12       14 1
  14       14       15 1
  15       14       16 1
  16       16       17 1
  17       17       18 1
  18       18       19 1
  19       19       17 1
  20       19       20 1
  21       20       14 1
  22       10       21 ar
  23       21        5 ar
  24       21       22 1
  25       17       23 1
  26       19       24 1
  27        1       25 1
  28        1       26 1
  29        1       27 1
  30        8       28 1
  31        9       29 1
  32       11       30 1
  33       15       31 1
  34       15       32 1
  35       15       33 1
  36       16       34 1
  37       16       35 1
  38       18       36 1
  39       18       37 1
  40       20       38 1
  41       20       39 1

@<TRIPOS>MOLECULE

  39   41
SMALL
USER_CHARGES
@<TRIPOS>ATOM
   1 C1           5.3582    -3.1450     3.3768 C.3          1    LIG   0.0000
   2 O2           4.5519    -2.1311     2.7953 O.3          1    LIG   0.0000
   3 C3           5.2049    -1.1461     2.2301 C.2          1    LIG   0.0000
   4 O4           6.4049    -1.1444     2.2289 O.2          1    LIG   0.0000
   5 C5           4.4775    -0.0576     1.6058 C.ar         1    LIG   0.0000
   6 C6           5.1712     0.9890     1.0057 C.ar         1    LIG   0.0000
   7 Cl7          6.9509     1.0159     0.9899 Cl           1    LIG   0.0000
   8 C8           4.4894     2.0408     0.4023 C.ar         1    LIG   0.0000
   9 C9           3.0981     2.0437     0.4013 C.ar         1    LIG   0.0000
  10 C10          2.3998     1.0000     1.0000 C.ar         1    LIG   0.0000
  11 N11          1.0000     1.0000     1.0000 N.am         1    LIG   0.0000
  12 C12          0.3150     2.1864     1.0039 C.2          1    LIG   0.0000
  13 O13          0.9150     3.2257     1.0073 O.2          1    LIG   0.0000
  14 C14         -1.2062     2.1864     1.0039 C.3          1    LIG   0.0000
  15 C15         -1.7276     3.6131     0.9362 C.3          1    LIG   0.0000
  16 C16         -1.7721     1.4804     2.2176 C.3          1    LIG   0.0000
  17 C17         -2.5311     0.2747     1.6897 C.3          1    LIG   0.0000
  18 C18         -3.8069    -0.2553     1.0871 C.3          1    LIG   0.0000
  19 C19         -3.0754     0.8940     0.4559 C.3          1    LIG   0.0000
  20 C20         -1.7493     1.3309    -0.1287 C.3          1    LIG   0.0000
  21 C21          3.0861    -0.0497     1.6014 C.ar         1    LIG   0.0000
  22 Cl22         2.1844    -1.3811     2.3654 Cl           1    LIG   0.0000
  23 H           -1.8203    -0.3500     1.3666 H            1    LIG   0.0000
  24 H           -3.5513     1.7265     0.7395 H            1    LIG   0.0000
  25 H            4.7714    -3.8474     3.7798 H            1    LIG   0.0000
  26 H            5.9354    -3.5572     2.6718 H            1    LIG   0.0000
  27 H            5.9356    -2.7446     4.0883 H            1    LIG   0.0000
  28 H            4.9952     2.7888    -0.0273 H            1    LIG   0.0000
  29 H            2.6000     2.7961    -0.0298 H            1    LIG   0.0000
  30 H            0.5000     0.1340     0.9972 H            1    LIG   0.0000
  31 H           -2.7276     3.6029     0.9366 H            1    LIG   0.0000
  32 H           -1.3991     4.1261     1.7292 H            1    LIG   0.0000
  33 H           -1.3991     4.0486     0.0981 H            1    LIG   0.0000
  34 H           -2.3902     2.0885     2.7158 H            1    LIG   0.0000
  35 H           -1.0331     1.1867     2.8239 H            1    LIG   0.0000
  36 H           -4.6813    -0.1022     1.5474 H            1    LIG   0.0000
  37 H           -3.8176    -1.1500     0.6404 H            1    LIG   0.0000
  38 H           -1.1548     0.5492    -0.3170 H            1    LIG   0.0000
  39 H           -1.8739     1.8641    -0.9655 H            1    LIG   0.0000
@<TRIPOS>BOND
   1        1        2 1
   2        2        3 1
   3        3        4 2
   4        3        5 1
   5        5        6 ar
   6        6        7 1
   7        6        8 ar
   8        8        9 ar
   9        9       10 ar
  10       10       11 1
  11       11       12 am
  12       12       13 2
  13       12       14 1
  14       14       15 1
  15       14       16 1
  16       16       17 1
  17       17       18 1
  18       18       19 1
  19       19       17 1
  20       19       20 1
  21       20       14 1
  22       10       21 ar
  23       21        5 ar
  24       21       22 1
  25       17       23 1
  26       19       24 1
  27        1       25 1
  28        1       26 1
  29        1       27 1
  30        8       28 1
  31        9       29 1
  32       11       30 1
  33       15       31 1
  34       15       32 1
  35       15       33 1
  36       16       34 1
  37       16       35 1
  38       18       36 1
  39       18       37 1
  40       20       38 1
  41       20       39 1

@<TRIPOS>MOLECULE

  39   41
SMALL
USER_CHARGES
@<TRIPOS>ATOM
   1 C1           7.1285    -2.2435    -0.8860 C.3          1    LIG   0.0000
   2 O2           6.5149    -1.1363    -0.2425 O.3          1    LIG   0.0000
   3 C3           5.2049    -1.1384    -0.2435 C.2          1    LIG   0.0000
   4 O4           4.6067    -2.0379    -0.7661 O.2          1    LIG   0.0000
   5 C5           4.4775    -0.0534     0.3870 C.ar         1    LIG   0.0000
   6 C6           5.1712     0.9896     0.9933 C.ar         1    LIG   0.0000
   7 Cl7          6.9509     1.0167     1.0088 Cl           1    LIG   0.0000
   8 C8           4.4894     2.0380     1.6025 C.ar         1    LIG   0.0000
   9 C9           3.0981     2.0404     1.6046 C.ar         1    LIG   0.0000
  10 C10          2.3998     1.0000     1.0000 C.ar         1    LIG   0.0000
  11 N11          1.0000     1.0000     1.0000 N.am         1    LIG   0.0000
  12 C12          0.3150     2.1864     1.0039 C.2          1    LIG   0.0000
  13 O13          0.9150     3.2257     1.0073 O.2          1    LIG   0.0000
  14 C14         -1.2062     2.1864     1.0039 C.3          1    LIG   0.0000
  15 C15         -1.7276     1.4145    -0.1978 C.3          1    LIG   0.0000
  16 C16         -1.7721     3.5906     1.0085 C.3          1    LIG   0.0000
  17 C17         -2.5311     3.7362     2.3166 C.3          1    LIG   0.0000
  18 C18         -3.8069     3.4794     3.0770 C.3          1    LIG   0.0000
  19 C19         -3.0754     2.3581     2.3972 C.3          1    LIG   0.0000
  20 C20         -1.7493     1.6334     2.3111 C.3          1    LIG   0.0000
  21 C21          3.0861    -0.0457     0.3917 C.ar         1    LIG   0.0000
  22 Cl22         2.1844    -1.3730    -0.3794 Cl           1    LIG   0.0000
  23 H           -1.8203     3.7688     3.0192 H            1    LIG   0.0000
  24 H           -3.5513     2.1874     1.5344 H            1    LIG   0.0000
  25 H            8.1227    -2.1511    -0.8324 H            1    LIG   0.0000
  26 H            6.8475    -3.0898    -0.4333 H            1    LIG   0.0000
  27 H            6.8473    -2.2694    -1.8453 H            1    LIG   0.0000
  28 H            4.9952     2.7841     2.0355 H            1    LIG   0.0000
  29 H            2.6000     2.7899     2.0406 H            1    LIG   0.0000
  30 H            0.5000     0.1340     0.9972 H            1    LIG   0.0000
  31 H           -2.7276     1.4200    -0.1892 H            1    LIG   0.0000
  32 H           -1.3991     1.8448    -1.0385 H            1    LIG   0.0000
  33 H           -1.3991     0.4709    -0.1559 H            1    LIG   0.0000
  34 H           -2.3902     3.7180     0.2328 H            1    LIG   0.0000
  35 H           -1.0331     4.2625     0.9597 H            1    LIG   0.0000
  36 H           -4.6813     3.8014     2.7141 H            1    LIG   0.0000
  37 H           -3.8176     3.5398     4.0751 H            1    LIG   0.0000
  38 H           -1.1548     1.8612     3.0823 H            1    LIG   0.0000
  39 H           -1.8739     0.6421     2.2677 H            1    LIG   0.0000
@<TRIPOS>BOND
   1        1        2 1
   2        2        3 1
   3        3        4 2
   4        3        5 1
   5        5        6 ar
   6        6        7 1
   7        6        8 ar
   8        8        9 ar
   9        9       10 ar
  10       10       11 1
  11       11       12 am
  12       12       13 2
  13       12       14 1
  14       14       15 1
  15       14       16 1
  16       16       17 1
  17       17       18 1
  18       18       19 1
  19       19       17 1
  20       19       20 1
  21       20       14 1
  22       10       21 ar
  23       21        5 ar
  24       21       22 1
  25       17       23 1
  26       19       24 1
  27        1       25 1
  28        1       26 1
  29        1       27 1
  30        8       28 1
  31        9       29 1
  32       11       30 1
  33       15       31 1
  34       15       32 1
  35       15       33 1
  36       16       34 1
  37       16       35 1
  38       18       36 1
  39       18       37 1
  40       20       38 1
  41       20       39 1

@<TRIPOS>MOLECULE

  39   41
SMALL
USER_CHARGES
@<TRIPOS>ATOM
   1 C1           7.1285    -2.2435    -0.8860 C.3          1    LIG   0.0000
   2 O2           6.5149    -1.1363    -0.2425 O.3          1    LIG   0.0000
   3 C3           5.2049    -1.1384    -0.2435 C.2          1    LIG   0.0000
   4 O4           4.6067    -2.0379    -0.7661 O.2          1    LIG   0.0000
   5 C5           4.4775    -0.0534     0.3870 C.ar         1    LIG   0.0000
   6 C6           5.1712     0.9896     0.9933 C.ar         1    LIG   0.0000
   7 Cl7          6.9509     1.0167     1.0088 Cl           1    LIG   0.0000
   8 C8           4.4894     2.0380     1.6025 C.ar         1    LIG   0.0000
   9 C9           3.0981     2.0404     1.6046 C.ar         1    LIG   0.0000
  10 C10          2.3998     1.0000     1.0000 C.ar         1    LIG   0.0000
  11 N11          1.0000     1.0000     1.0000 N.am         1    LIG   0.0000
  12 C12          0.3150     2.1864     1.0039 C.2          1    LIG   0.0000
  13 O13          0.9150     3.2257     1.0073 O.2          1    LIG   0.0000
  14 C14         -1.2062     2.1864     1.0039 C.3          1    LIG   0.0000
  15 C15         -1.7276     1.5318     2.2733 C.3          1    LIG   0.0000
  16 C16         -1.7721     1.4884    -0.2144 C.3          1    LIG   0.0000
  17 C17         -2.5311     2.5484    -0.9946 C.3          1    LIG   0.0000
  18 C18         -3.8069     3.3353    -1.1523 C.3          1    LIG   0.0000
  19 C19         -3.0754     3.3072     0.1586 C.3          1    LIG   0.0000
  20 C20         -1.7493     3.5951     0.8293 C.3          1    LIG   0.0000
  21 C21          3.0861    -0.0457     0.3917 C.ar         1    LIG   0.0000
  22 Cl22         2.1844    -1.3730    -0.3794 Cl           1    LIG   0.0000
  23 H           -1.8203     3.1406    -1.3741 H            1    LIG   0.0000
  24 H           -3.5513     2.6454     0.7378 H            1    LIG   0.0000
  25 H            8.1227    -2.1511    -0.8324 H            1    LIG   0.0000
  26 H            6.8475    -3.0898    -0.4333 H            1    LIG   0.0000
  27 H            6.8473    -2.2694    -1.8453 H            1    LIG   0.0000
  28 H            4.9952     2.7841     2.0355 H            1    LIG   0.0000
  29 H            2.6000     2.7899     2.0406 H            1    LIG   0.0000
  30 H            0.5000     0.1340     0.9972 H            1    LIG   0.0000
  31 H           -2.7276     1.5365     2.2642 H            1    LIG   0.0000
  32 H           -1.3991     0.5885     2.3210 H            1    LIG   0.0000
  33 H           -1.3991     2.0398     3.0695 H            1    LIG   0.0000
  34 H           -2.3902     0.7529     0.0631 H            1    LIG   0.0000
  35 H           -1.0331     1.1101    -0.7719 H            1    LIG   0.0000
  36 H           -4.6813     2.8601    -1.2498 H            1    LIG   0.0000
  37 H           -3.8176     4.1695    -1.7038 H            1    LIG   0.0000
  38 H           -1.1548     4.1490     0.2464 H            1    LIG   0.0000
  39 H           -1.8739     4.0531     1.7094 H            1    LIG   0.0000
@<TRIPOS>BOND
   1        1        2 1
   2        2        3 1
   3        3        4 2
   4        3        5 1
   5        5        6 ar
   6        6        7 1
   7        6        8 ar
   8        8        9 ar
   9        9       10 ar
  10       10       11 1
  11       11       12 am
  12       12       13 2
  13       12       14 1
  14       14       15 1
  15       14       16 1
  16       16       17 1
  17       17       18 1
  18       18       19 1
  19       19       17 1
  20       19       20 1
  21       20       14 1
  22       10       21 ar
  23       21        5 ar
  24       21       22 1
  25       17       23 1
  26       19       24 1
  27        1       25 1
  28        1       26 1
  29        1       27 1
  30        8       28 1
  31        9       29 1
  32       11       30 1
  33       15       31 1
  34       15       32 1
  35       15       33 1
  36       16       34 1
  37       16       35 1
  38       18       36 1
  39       18       37 1
  40       20       38 1
  41       20       39 1

@<TRIPOS>MOLECULE

  39   41
SMALL
USER_CHARGES
@<TRIPOS>ATOM
   1 C1           7.1285    -2.2435    -0.8860 C.3          1    LIG   0.0000
   2 O2           6.5149    -1.1363    -0.2425 O.3          1    LIG   0.0000
   3 C3           5.2049    -1.1384    -0.2435 C.2          1    LIG   0.0000
   4 O4           4.6067    -2.0379    -0.7661 O.2          1    LIG   0.0000
   5 C5           4.4775    -0.0534     0.3870 C.ar         1    LIG   0.0000
   6 C6           5.1712     0.9896     0.9933 C.ar         1    LIG   0.0000
   7 Cl7          6.9509     1.0167     1.0088 Cl           1    LIG   0.0000
   8 C8           4.4894     2.0380     1.6025 C.ar         1    LIG   0.0000
   9 C9           3.0981     2.0404     1.6046 C.ar         1    LIG   0.0000
  10 C10          2.3998     1.0000     1.0000 C.ar         1    LIG   0.0000
  11 N11          1.0000     1.0000     1.0000 N.am         1    LIG   0.0000
  12 C12          0.3150     2.1864     1.0039 C.2          1    LIG   0.0000
  13 O13          0.9150     3.2257     1.0073 O.2          1    LIG   0.0000
  14 C14         -1.2062     2.1864     1.0039 C.3          1    LIG   0.0000
  15 C15         -1.7276     3.6131     0.9362 C.3          1    LIG   0.0000
  16 C16         -1.7721     1.4804     2.2176 C.3          1    LIG   0.0000
  17 C17         -2.5311     0.2747     1.6897 C.3          1    LIG   0.0000
  18 C18         -3.8069    -0.2553     1.0871 C.3          1    LIG   0.0000
  19 C19         -3.0754     0.8940     0.4559 C.3          1    LIG   0.0000
  20 C20         -1.7493     1.3309    -0.1287 C.3          1    LIG   0.0000
  21 C21          3.0861    -0.0457     0.3917 C.ar         1    LIG   0.0000
  22 Cl22         2.1844    -1.3730    -0.3794 Cl           1    LIG   0.0000
  23 H           -1.8203    -0.3500     1.3666 H            1    LIG   0.0000
  24 H           -3.5513     1.7265     0.7395 H            1    LIG   0.0000
  25 H            8.1227    -2.1511    -0.8324 H            1    LIG   0.0000
  26 H            6.8475    -3.0898    -0.4333 H            1    LIG   0.0000
  27 H            6.8473    -2.2694    -1.8453 H            1    LIG   0.0000
  28 H            4.9952     2.7841     2.0355 H            1    LIG   0.0000
  29 H            2.6000     2.7899     2.0406 H            1    LIG   0.0000
  30 H            0.5000     0.1340     0.9972 H            1    LIG   0.0000
  31 H           -2.7276     3.6029     0.9366 H            1    LIG   0.0000
  32 H           -1.3991     4.1261     1.7292 H            1    LIG   0.0000
  33 H           -1.3991     4.0486     0.0981 H            1    LIG   0.0000
  34 H           -2.3902     2.0885     2.7158 H            1    LIG   0.0000
  35 H           -1.0331     1.1867     2.8239 H            1    LIG   0.0000
  36 H           -4.6813    -0.1022     1.5474 H            1    LIG   0.0000
  37 H           -3.8176    -1.1500     0.6404 H            1    LIG   0.0000
  38 H           -1.1548     0.5492    -0.3170 H            1    LIG   0.0000
  39 H           -1.8739     1.8641    -0.9655 H            1    LIG   0.0000
@<TRIPOS>BOND
   1        1        2 1
   2        2        3 1
   3        3        4 2
   4        3        5 1
   5        5        6 ar
   6        6        7 1
   7        6        8 ar
   8        8        9 ar
   9        9       10 ar
  10       10       11 1
  11       11       12 am
  12       12       13 2
  13       12       14 1
  14       14       15 1
  15       14       16 1
  16       16       17 1
  17       17       18 1
  18       18       19 1
  19       19       17 1
  20       19       20 1
  21       20       14 1
  22       10       21 ar
  23       21        5 ar
  24       21       22 1
  25       17       23 1
  26       19       24 1
  27        1       25 1
  28        1       26 1
  29        1       27 1
  30        8       28 1
  31        9       29 1
  32       11       30 1
  33       15       31 1
  34       15       32 1
  35       15       33 1
  36       16       34 1
  37       16       35 1
  38       18       36 1
  39       18       37 1
  40       20       38 1
  41       20       39 1

@<TRIPOS>MOLECULE

  39   41
SMALL
USER_CHARGES
@<TRIPOS>ATOM
   1 C1           6.2432     0.8975    -3.3851 C.3          1    LIG   0.0000
   2 O2           5.5332     1.3188    -2.2297 O.3          1    LIG   0.0000
   3 C3           5.2049     0.3673    -1.3914 C.2          1    LIG   0.0000
   4 O4           5.5059    -0.7702    -1.6269 O.2          1    LIG   0.0000
   5 C5           4.4775     0.6886    -0.1783 C.ar         1    LIG   0.0000
   6 C6           5.1712     0.9973     0.9879 C.ar         1    LIG   0.0000
   7 Cl7          6.9509     1.0056     1.0180 Cl           1    LIG   0.0000
   8 C8           4.4894     1.3079     2.1600 C.ar         1    LIG   0.0000
   9 C9           3.0981     1.3081     2.1631 C.ar         1    LIG   0.0000
  10 C10          2.3998     1.0000     1.0000 C.ar         1    LIG   0.0000
  11 N11          1.0000     1.0000     1.0000 N.am         1    LIG   0.0000
  12 C12          0.3150     2.1864     1.0039 C.2          1    LIG   0.0000
  13 O13          0.9150     3.2257     1.0073 O.2          1    LIG   0.0000
  14 C14         -1.2063     2.1864     1.0039 C.3          1    LIG   0.0000
  15 C15         -1.7342     1.3628     2.1699 C.3          1    LIG   0.0000
  16 C16         -1.7081     3.6002     1.0085 C.3          1    LIG   0.0000
  17 C17         -3.0224     3.4602     0.2860 C.3          1    LIG   0.0000
  18 C18         -3.7466     3.7012    -0.9975 C.3          1    LIG   0.0000
  19 C19         -2.5160     2.8472    -0.9808 C.3          1    LIG   0.0000
  20 C20         -1.7833     1.6968    -0.3074 C.3          1    LIG   0.0000
  21 C21          3.0861     0.6907    -0.1696 C.ar         1    LIG   0.0000
  22 Cl22         2.1844     0.2974    -1.6534 Cl           1    LIG   0.0000
  23 H           -3.5285     2.7411     0.7622 H            1    LIG   0.0000
  24 H           -1.7860     3.4632    -1.2766 H            1    LIG   0.0000
  25 H            6.4468     1.6907    -3.9589 H            1    LIG   0.0000
  26 H            7.0978     0.4575    -3.1092 H            1    LIG   0.0000
  27 H            5.6850     0.2475    -3.9008 H            1    LIG   0.0000
  28 H            4.9952     1.5293     2.9937 H            1    LIG   0.0000
  29 H            2.6000     1.5298     3.0015 H            1    LIG   0.0000
  30 H            0.5000     0.1340     0.9972 H            1    LIG   0.0000
  31 H           -2.7341     1.3711     2.1581 H            1    LIG   0.0000
  32 H           -1.4077     0.4212     2.0877 H            1    LIG   0.0000
  33 H           -1.4077     1.7550     3.0299 H            1    LIG   0.0000
  34 H           -1.0854     4.2097     0.5178 H            1    LIG   0.0000
  35 H           -1.8388     3.9376     1.9408 H            1    LIG   0.0000
  36 H           -3.7217     4.6057    -1.4234 H            1    LIG   0.0000
  37 H           -4.6424     3.2845    -1.1520 H            1    LIG   0.0000
  38 H           -2.4219     0.9469    -0.1344 H            1    LIG   0.0000
  39 H           -1.0449     1.3756    -0.9005 H            1    LIG   0.0000
@<TRIPOS>BOND
   1        1        2 1
   2        2        3 1
   3        3        4 2
   4        3        5 1
   5        5        6 ar
   6        6        7 1
   7        6        8 ar
   8        8        9 ar
   9        9       10 ar
  10       10       11 1
  11       11       12 am
  12       12       13 2
  13       12       14 1
  14       14       15 1
  15       14       16 1
  16       16       17 1
  17       17       18 1
  18       18       19 1
  19       19       17 1
  20       19       20 1
  21       20       14 1
  22       10       21 ar
  23       21        5 ar
  24       21       22 1
  25       17       23 1
  26       19       24 1
  27        1       25 1
  28        1       26 1
  29        1       27 1
  30        8       28 1
  31        9       29 1
  32       11       30 1
  33       15       31 1
  34       15       32 1
  35       15       33 1
  36       16       34 1
  37       16       35 1
  38       18       36 1
  39       18       37 1
  40       20       38 1
  41       20       39 1

@<TRIPOS>MOLECULE

  39   41
SMALL
USER_CHARGES
@<TRIPOS>ATOM
   1 C1           6.2432     0.8975    -3.3851 C.3          1    LIG   0.0000
   2 O2           5.5332     1.3188    -2.2297 O.3          1    LIG   0.0000
   3 C3           5.2049     0.3673    -1.3914 C.2          1    LIG   0.0000
   4 O4           5.5059    -0.7702    -1.6269 O.2          1    LIG   0.0000
   5 C5           4.4775     0.6886    -0.1783 C.ar         1    LIG   0.0000
   6 C6           5.1712     0.9973     0.9879 C.ar         1    LIG   0.0000
   7 Cl7          6.9509     1.0056     1.0180 Cl           1    LIG   0.0000
   8 C8           4.4894     1.3079     2.1600 C.ar         1    LIG   0.0000
   9 C9           3.0981     1.3081     2.1631 C.ar         1    LIG   0.0000
  10 C10          2.3998     1.0000     1.0000 C.ar         1    LIG   0.0000
  11 N11          1.0000     1.0000     1.0000 N.am         1    LIG   0.0000
  12 C12          0.3150     2.1864     1.0039 C.2          1    LIG   0.0000
  13 O13          0.9150     3.2257     1.0073 O.2          1    LIG   0.0000
  14 C14         -1.2063     2.1864     1.0039 C.3          1    LIG   0.0000
  15 C15         -1.7342     1.5885    -0.2924 C.3          1    LIG   0.0000
  16 C16         -1.7081     1.4755     2.2259 C.3          1    LIG   0.0000
  17 C17         -3.0224     2.1713     2.4660 C.3          1    LIG   0.0000
  18 C18         -3.7466     3.1623     3.3164 C.3          1    LIG   0.0000
  19 C19         -2.5160     3.5749     2.5684 C.3          1    LIG   0.0000
  20 C20         -1.7833     3.5669     1.2355 C.3          1    LIG   0.0000
  21 C21          3.0861     0.6907    -0.1696 C.ar         1    LIG   0.0000
  22 Cl22         2.1844     0.2974    -1.6534 Cl           1    LIG   0.0000
  23 H           -3.5285     2.1184     1.6051 H            1    LIG   0.0000
  24 H           -1.7860     3.5230     3.2499 H            1    LIG   0.0000
  25 H            6.4468     1.6907    -3.9589 H            1    LIG   0.0000
  26 H            7.0978     0.4575    -3.1092 H            1    LIG   0.0000
  27 H            5.6850     0.2475    -3.9008 H            1    LIG   0.0000
  28 H            4.9952     1.5293     2.9937 H            1    LIG   0.0000
  29 H            2.6000     1.5298     3.0015 H            1    LIG   0.0000
  30 H            0.5000     0.1340     0.9972 H            1    LIG   0.0000
  31 H           -2.7341     1.5945    -0.2793 H            1    LIG   0.0000
  32 H           -1.4077     2.1305    -1.0668 H            1    LIG   0.0000
  33 H           -1.4077     0.6476    -0.3827 H            1    LIG   0.0000
  34 H           -1.0854     1.5958     2.9991 H            1    LIG   0.0000
  35 H           -1.8388     0.4995     2.0519 H            1    LIG   0.0000
  36 H           -3.7217     3.0789     4.3126 H            1    LIG   0.0000
  37 H           -4.6424     3.5045     3.0328 H            1    LIG   0.0000
  38 H           -2.4219     3.7920     0.4996 H            1    LIG   0.0000
  39 H           -1.0449     4.2411     1.2539 H            1    LIG   0.0000
@<TRIPOS>BOND
   1        1        2 1
   2        2        3 1
   3        3        4 2
   4        3        5 1
   5        5        6 ar
   6        6        7 1
   7        6        8 ar
   8        8        9 ar
   9        9       10 ar
  10       10       11 1
  11       11       12 am
  12       12       13 2
  13       12       14 1
  14       14       15 1
  15       14       16 1
  16       16       17 1
  17       17       18 1
  18       18       19 1
  19       19       17 1
  20       19       20 1
  21       20       14 1
  22       10       21 ar
  23       21        5 ar
  24       21       22 1
  25       17       23 1
  26       19       24 1
  27        1       25 1
  28        1       26 1
  29        1       27 1
  30        8       28 1
  31        9       29 1
  32       11       30 1
  33       15       31 1
  34       15       32 1
  35       15       33 1
  36       16       34 1
  37       16       35 1
  38       18       36 1
  39       18       37 1
  40       20       38 1
  41       20       39 1

@<TRIPOS>MOLECULE

  39   41
SMALL
USER_CHARGES
@<TRIPOS>ATOM
   1 C1           6.2435    -1.0804    -2.8610 C.3          1    LIG   0.0000
   2 O2           5.5335    -0.8745    -1.6485 O.3          1    LIG   0.0000
   3 C3           5.2049     0.3673    -1.3914 C.2          1    LIG   0.0000
   4 O4           5.5057     1.2389    -2.1593 O.2          1    LIG   0.0000
   5 C5           4.4775     0.6886    -0.1783 C.ar         1    LIG   0.0000
   6 C6           5.1712     0.9973     0.9879 C.ar         1    LIG   0.0000
   7 Cl7          6.9509     1.0056     1.0180 Cl           1    LIG   0.0000
   8 C8           4.4894     1.3079     2.1600 C.ar         1    LIG   0.0000
   9 C9           3.0981     1.3081     2.1631 C.ar         1    LIG   0.0000
  10 C10          2.3998     1.0000     1.0000 C.ar         1    LIG   0.0000
  11 N11          1.0000     1.0000     1.0000 N.am         1    LIG   0.0000
  12 C12          0.3150     2.1864     1.0039 C.2          1    LIG   0.0000
  13 O13          0.9150     3.2257     1.0073 O.2          1    LIG   0.0000
  14 C14         -1.2063     2.1864     1.0039 C.3          1    LIG   0.0000
  15 C15         -1.7342     3.6080     1.1342 C.3          1    LIG   0.0000
  16 C16         -1.7081     1.4836    -0.2228 C.3          1    LIG   0.0000
  17 C17         -3.0224     0.9278     0.2598 C.3          1    LIG   0.0000
  18 C18         -3.7466    -0.3042     0.6927 C.3          1    LIG   0.0000
  19 C19         -2.5160     0.1373     1.4241 C.3          1    LIG   0.0000
  20 C20         -1.7833     1.2956     2.0836 C.3          1    LIG   0.0000
  21 C21          3.0861     0.6907    -0.1696 C.ar         1    LIG   0.0000
  22 Cl22         2.1844     0.2974    -1.6534 Cl           1    LIG   0.0000
  23 H           -3.5285     1.6998     0.6444 H            1    LIG   0.0000
  24 H           -1.7860    -0.4269     1.0384 H            1    LIG   0.0000
  25 H            6.4473    -2.0537    -2.9667 H            1    LIG   0.0000
  26 H            5.6851    -0.7713    -3.6308 H            1    LIG   0.0000
  27 H            7.0979    -0.5613    -2.8392 H            1    LIG   0.0000
  28 H            4.9952     1.5293     2.9937 H            1    LIG   0.0000
  29 H            2.6000     1.5298     3.0015 H            1    LIG   0.0000
  30 H            0.5000     0.1340     0.9972 H            1    LIG   0.0000
  31 H           -2.7341     3.5937     1.1329 H            1    LIG   0.0000
  32 H           -1.4077     4.0077     1.9907 H            1    LIG   0.0000
  33 H           -1.4077     4.1567     0.3646 H            1    LIG   0.0000
  34 H           -1.0854     0.7538    -0.5052 H            1    LIG   0.0000
  35 H           -1.8388     2.1223    -0.9811 H            1    LIG   0.0000
  36 H           -3.7217    -1.1252     0.1224 H            1    LIG   0.0000
  37 H           -4.6424    -0.2297     1.1309 H            1    LIG   0.0000
  38 H           -2.4219     1.8204     2.6465 H            1    LIG   0.0000
  39 H           -1.0449     0.9426     2.6583 H            1    LIG   0.0000
@<TRIPOS>BOND
   1        1        2 1
   2        2        3 1
   3        3        4 2
   4        3        5 1
   5        5        6 ar
   6        6        7 1
   7        6        8 ar
   8        8        9 ar
   9        9       10 ar
  10       10       11 1
  11       11       12 am
  12       12       13 2
  13       12       14 1
  14       14       15 1
  15       14       16 1
  16       16       17 1
  17       17       18 1
  18       18       19 1
  19       19       17 1
  20       19       20 1
  21       20       14 1
  22       10       21 ar
  23       21        5 ar
  24       21       22 1
  25       17       23 1
  26       19       24 1
  27        1       25 1
  28        1       26 1
  29        1       27 1
  30        8       28 1
  31        9       29 1
  32       11       30 1
  33       15       31 1
  34       15       32 1
  35       15       33 1
  36       16       34 1
  37       16       35 1
  38       18       36 1
  39       18       37 1
  40       20       38 1
  41       20       39 1

@<TRIPOS>MOLECULE

  39   41
SMALL
USER_CHARGES
@<TRIPOS>ATOM
   1 C1           5.3582     3.4013    -3.1309 C.3          1    LIG   0.0000
   2 O2           4.5519     2.8140    -2.1203 O.3          1    LIG   0.0000
   3 C3           5.2049     2.2435    -1.1384 C.2          1    LIG   0.0000
   4 O4           6.4049     2.2426    -1.1365 O.2          1    LIG   0.0000
   5 C5           4.4775     1.6130    -0.0534 C.ar         1    LIG   0.0000
   6 C6           5.1712     1.0067     0.9896 C.ar         1    LIG   0.0000
   7 Cl7          6.9509     0.9912     1.0167 Cl           1    LIG   0.0000
   8 C8           4.4894     0.3975     2.0380 C.ar         1    LIG   0.0000
   9 C9           3.0981     0.3954     2.0404 C.ar         1    LIG   0.0000
  10 C10          2.3998     1.0000     1.0000 C.ar         1    LIG   0.0000
  11 N11          1.0000     1.0000     1.0000 N.am         1    LIG   0.0000
  12 C12          0.3150     2.1864     1.0039 C.2          1    LIG   0.0000
  13 O13          0.9150     3.2257     1.0073 O.2          1    LIG   0.0000
  14 C14         -1.2062     2.1864     1.0039 C.3          1    LIG   0.0000
  15 C15         -1.7276     1.4145    -0.1978 C.3          1    LIG   0.0000
  16 C16         -1.7721     3.5906     1.0085 C.3          1    LIG   0.0000
  17 C17         -2.5311     3.7362     2.3166 C.3          1    LIG   0.0000
  18 C18         -3.8069     3.4794     3.0770 C.3          1    LIG   0.0000
  19 C19         -3.0754     2.3581     2.3972 C.3          1    LIG   0.0000
  20 C20         -1.7493     1.6334     2.3111 C.3          1    LIG   0.0000
  21 C21          3.0861     1.6083    -0.0457 C.ar         1    LIG   0.0000
  22 Cl22         2.1844     2.3794    -1.3730 Cl           1    LIG   0.0000
  23 H           -1.8203     3.7688     3.0192 H            1    LIG   0.0000
  24 H           -3.5513     2.1874     1.5344 H            1    LIG   0.0000
  25 H            4.7714     3.8080    -3.8311 H            1    LIG   0.0000
  26 H            5.9354     4.1107    -2.7264 H            1    LIG   0.0000
  27 H            5.9356     2.6988    -3.5468 H            1    LIG   0.0000
  28 H            4.9952    -0.0355     2.7841 H            1    LIG   0.0000
  29 H            2.6000    -0.0406     2.7899 H            1    LIG   0.0000
  30 H            0.5000     0.1340     0.9972 H            1    LIG   0.0000
  31 H           -2.7276     1.4200    -0.1892 H            1    LIG   0.0000
  32 H           -1.3991     1.8448    -1.0385 H            1    LIG   0.0000
  33 H           -1.3991     0.4709    -0.1559 H            1    LIG   0.0000
  34 H           -2.3902     3.7180     0.2328 H            1    LIG   0.0000
  35 H           -1.0331     4.2625     0.9597 H            1    LIG   0.0000
  36 H           -4.6813     3.8014     2.7141 H            1    LIG   0.0000
  37 H           -3.8176     3.5398     4.0751 H            1    LIG   0.0000
  38 H           -1.1548     1.8612     3.0823 H            1    LIG   0.0000
  39 H           -1.8739     0.6421     2.2677 H            1    LIG   0.0000
@<TRIPOS>BOND
   1        1        2 1
   2        2        3 1
   3        3        4 2
   4        3        5 1
   5        5        6 ar
   6        6        7 1
   7        6        8 ar
   8        8        9 ar
   9        9       10 ar
  10       10       11 1
  11       11       12 am
  12       12       13 2
  13       12       14 1
  14       14       15 1
  15       14       16 1
  16       16       17 1
  17       17       18 1
  18       18       19 1
  19       19       17 1
  20       19       20 1
  21       20       14 1
  22       10       21 ar
  23       21        5 ar
  24       21       22 1
  25       17       23 1
  26       19       24 1
  27        1       25 1
  28        1       26 1
  29        1       27 1
  30        8       28 1
  31        9       29 1
  32       11       30 1
  33       15       31 1
  34       15       32 1
  35       15       33 1
  36       16       34 1
  37       16       35 1
  38       18       36 1
  39       18       37 1
  40       20       38 1
  41       20       39 1

@<TRIPOS>MOLECULE

  39   41
SMALL
USER_CHARGES
@<TRIPOS>ATOM
   1 C1           5.3582     3.4013    -3.1309 C.3          1    LIG   0.0000
   2 O2           4.5519     2.8140    -2.1203 O.3          1    LIG   0.0000
   3 C3           5.2049     2.2435    -1.1384 C.2          1    LIG   0.0000
   4 O4           6.4049     2.2426    -1.1365 O.2          1    LIG   0.0000
   5 C5           4.4775     1.6130    -0.0534 C.ar         1    LIG   0.0000
   6 C6           5.1712     1.0067     0.9896 C.ar         1    LIG   0.0000
   7 Cl7          6.9509     0.9912     1.0167 Cl           1    LIG   0.0000
   8 C8           4.4894     0.3975     2.0380 C.ar         1    LIG   0.0000
   9 C9           3.0981     0.3954     2.0404 C.ar         1    LIG   0.0000
  10 C10          2.3998     1.0000     1.0000 C.ar         1    LIG   0.0000
  11 N11          1.0000     1.0000     1.0000 N.am         1    LIG   0.0000
  12 C12          0.3150     2.1864     1.0039 C.2          1    LIG   0.0000
  13 O13          0.9150     3.2257     1.0073 O.2          1    LIG   0.0000
  14 C14         -1.2062     2.1864     1.0039 C.3          1    LIG   0.0000
  15 C15         -1.7276     1.5318     2.2733 C.3          1    LIG   0.0000
  16 C16         -1.7721     1.4884    -0.2144 C.3          1    LIG   0.0000
  17 C17         -2.5311     2.5484    -0.9946 C.3          1    LIG   0.0000
  18 C18         -3.8069     3.3353    -1.1523 C.3          1    LIG   0.0000
  19 C19         -3.0754     3.3072     0.1586 C.3          1    LIG   0.0000
  20 C20         -1.7493     3.5951     0.8293 C.3          1    LIG   0.0000
  21 C21          3.0861     1.6083    -0.0457 C.ar         1    LIG   0.0000
  22 Cl22         2.1844     2.3794    -1.3730 Cl           1    LIG   0.0000
  23 H           -1.8203     3.1406    -1.3741 H            1    LIG   0.0000
  24 H           -3.5513     2.6454     0.7378 H            1    LIG   0.0000
  25 H            4.7714     3.8080    -3.8311 H            1    LIG   0.0000
  26 H            5.9354     4.1107    -2.7264 H            1    LIG   0.0000
  27 H            5.9356     2.6988    -3.5468 H            1    LIG   0.0000
  28 H            4.9952    -0.0355     2.7841 H            1    LIG   0.0000
  29 H            2.6000    -0.0406     2.7899 H            1    LIG   0.0000
  30 H            0.5000     0.1340     0.9972 H            1    LIG   0.0000
  31 H           -2.7276     1.5365     2.2642 H            1    LIG   0.0000
  32 H           -1.3991     0.5885     2.3210 H            1    LIG   0.0000
  33 H           -1.3991     2.0398     3.0695 H            1    LIG   0.0000
  34 H           -2.3902     0.7529     0.0631 H            1    LIG   0.0000
  35 H           -1.0331     1.1101    -0.7719 H            1    LIG   0.0000
  36 H           -4.6813     2.8601    -1.2498 H            1    LIG   0.0000
  37 H           -3.8176     4.1695    -1.7038 H            1    LIG   0.0000
  38 H           -1.1548     4.1490     0.2464 H            1    LIG   0.0000
  39 H           -1.8739     4.0531     1.7094 H            1    LIG   0.0000
@<TRIPOS>BOND
   1        1        2 1
   2        2        3 1
   3        3        4 2
   4        3        5 1
   5        5        6 ar
   6        6        7 1
   7        6        8 ar
   8        8        9 ar
   9        9       10 ar
  10       10       11 1
  11       11       12 am
  12       12       13 2
  13       12       14 1
  14       14       15 1
  15       14       16 1
  16       16       17 1
  17       17       18 1
  18       18       19 1
  19       19       17 1
  20       19       20 1
  21       20       14 1
  22       10       21 ar
  23       21        5 ar
  24       21       22 1
  25       17       23 1
  26       19       24 1
  27        1       25 1
  28        1       26 1
  29        1       27 1
  30        8       28 1
  31        9       29 1
  32       11       30 1
  33       15       31 1
  34       15       32 1
  35       15       33 1
  36       16       34 1
  37       16       35 1
  38       18       36 1
  39       18       37 1
  40       20       38 1
  41       20       39 1

@<TRIPOS>MOLECULE

  39   41
SMALL
USER_CHARGES
@<TRIPOS>ATOM
   1 C1           5.3582     3.4013    -3.1309 C.3          1    LIG   0.0000
   2 O2           4.5519     2.8140    -2.1203 O.3          1    LIG   0.0000
   3 C3           5.2049     2.2435    -1.1384 C.2          1    LIG   0.0000
   4 O4           6.4049     2.2426    -1.1365 O.2          1    LIG   0.0000
   5 C5           4.4775     1.6130    -0.0534 C.ar         1    LIG   0.0000
   6 C6           5.1712     1.0067     0.9896 C.ar         1    LIG   0.0000
   7 Cl7          6.9509     0.9912     1.0167 Cl           1    LIG   0.0000
   8 C8           4.4894     0.3975     2.0380 C.ar         1    LIG   0.0000
   9 C9           3.0981     0.3954     2.0404 C.ar         1    LIG   0.0000
  10 C10          2.3998     1.0000     1.0000 C.ar         1    LIG   0.0000
  11 N11          1.0000     1.0000     1.0000 N.am         1    LIG   0.0000
  12 C12          0.3150     2.1864     1.0039 C.2          1    LIG   0.0000
  13 O13          0.9150     3.2257     1.0073 O.2          1    LIG   0.0000
  14 C14         -1.2062     2.1864     1.0039 C.3          1    LIG   0.0000
  15 C15         -1.7276     3.6131     0.9362 C.3          1    LIG   0.0000
  16 C16         -1.7721     1.4804     2.2176 C.3          1    LIG   0.0000
  17 C17         -2.5311     0.2747     1.6897 C.3          1    LIG   0.0000
  18 C18         -3.8069    -0.2553     1.0871 C.3          1    LIG   0.0000
  19 C19         -3.0754     0.8940     0.4559 C.3          1    LIG   0.0000
  20 C20         -1.7493     1.3309    -0.1287 C.3          1    LIG   0.0000
  21 C21          3.0861     1.6083    -0.0457 C.ar         1    LIG   0.0000
  22 Cl22         2.1844     2.3794    -1.3730 Cl           1    LIG   0.0000
  23 H           -1.8203    -0.3500     1.3666 H            1    LIG   0.0000
  24 H           -3.5513     1.7265     0.7395 H            1    LIG   0.0000
  25 H            4.7714     3.8080    -3.8311 H            1    LIG   0.0000
  26 H            5.9354     4.1107    -2.7264 H            1    LIG   0.0000
  27 H            5.9356     2.6988    -3.5468 H            1    LIG   0.0000
  28 H            4.9952    -0.0355     2.7841 H            1    LIG   0.0000
  29 H            2.6000    -0.0406     2.7899 H            1    LIG   0.0000
  30 H            0.5000     0.1340     0.9972 H            1    LIG   0.0000
  31 H           -2.7276     3.6029     0.9366 H            1    LIG   0.0000
  32 H           -1.3991     4.1261     1.7292 H            1    LIG   0.0000
  33 H           -1.3991     4.0486     0.0981 H            1    LIG   0.0000
  34 H           -2.3902     2.0885     2.7158 H            1    LIG   0.0000
  35 H           -1.0331     1.1867     2.8239 H            1    LIG   0.0000
  36 H           -4.6813    -0.1022     1.5474 H            1    LIG   0.0000
  37 H           -3.8176    -1.1500     0.6404 H            1    LIG   0.0000
  38 H           -1.1548     0.5492    -0.3170 H            1    LIG   0.0000
  39 H           -1.8739     1.8641    -0.9655 H            1    LIG   0.0000
@<TRIPOS>BOND
   1        1        2 1
   2        2        3 1
   3        3        4 2
   4        3        5 1
   5        5        6 ar
   6        6        7 1
   7        6        8 ar
   8        8        9 ar
   9        9       10 ar
  10       10       11 1
  11       11       12 am
  12       12       13 2
  13       12       14 1
  14       14       15 1
  15       14       16 1
  16       16       17 1
  17       17       18 1
  18       18       19 1
  19       19       17 1
  20       19       20 1
  21       20       14 1
  22       10       21 ar
  23       21        5 ar
  24       21       22 1
  25       17       23 1
  26       19       24 1
  27        1       25 1
  28        1       26 1
  29        1       27 1
  30        8       28 1
  31        9       29 1
  32       11       30 1
  33       15       31 1
  34       15       32 1
  35       15       33 1
  36       16       34 1
  37       16       35 1
  38       18       36 1
  39       18       37 1
  40       20       38 1
  41       20       39 1

@<TRIPOS>MOLECULE

  39   41
SMALL
USER_CHARGES
@<TRIPOS>ATOM
   1 C1           6.2432     4.0282    -2.1732 C.3          1    LIG   0.0000
   2 O2           5.5332     3.5092    -1.0583 O.3          1    LIG   0.0000
   3 C3           5.2049     2.2435    -1.1384 C.2          1    LIG   0.0000
   4 O4           5.5059     1.6058    -2.1093 O.2          1    LIG   0.0000
   5 C5           4.4775     1.6130    -0.0534 C.ar         1    LIG   0.0000
   6 C6           5.1712     1.0067     0.9896 C.ar         1    LIG   0.0000
   7 Cl7          6.9509     0.9912     1.0167 Cl           1    LIG   0.0000
   8 C8           4.4894     0.3975     2.0380 C.ar         1    LIG   0.0000
   9 C9           3.0981     0.3954     2.0404 C.ar         1    LIG   0.0000
  10 C10          2.3998     1.0000     1.0000 C.ar         1    LIG   0.0000
  11 N11          1.0000     1.0000     1.0000 N.am         1    LIG   0.0000
  12 C12          0.3150     2.1864     1.0039 C.2          1    LIG   0.0000
  13 O13          0.9150     3.2257     1.0073 O.2          1    LIG   0.0000
  14 C14         -1.2063     2.1864     1.0039 C.3          1    LIG   0.0000
  15 C15         -1.7342     3.6080     1.1342 C.3          1    LIG   0.0000
  16 C16         -1.7081     1.4836    -0.2228 C.3          1    LIG   0.0000
  17 C17         -3.0224     0.9278     0.2598 C.3          1    LIG   0.0000
  18 C18         -3.7466    -0.3042     0.6927 C.3          1    LIG   0.0000
  19 C19         -2.5160     0.1373     1.4241 C.3          1    LIG   0.0000
  20 C20         -1.7833     1.2956     2.0836 C.3          1    LIG   0.0000
  21 C21          3.0861     1.6083    -0.0457 C.ar         1    LIG   0.0000
  22 Cl22         2.1844     2.3794    -1.3730 Cl           1    LIG   0.0000
  23 H           -3.5285     1.6998     0.6444 H            1    LIG   0.0000
  24 H           -1.7860    -0.4269     1.0384 H            1    LIG   0.0000
  25 H            6.4468     4.9949    -2.0180 H            1    LIG   0.0000
  26 H            7.0978     3.5220    -2.2893 H            1    LIG   0.0000
  27 H            5.6850     3.9333    -2.9975 H            1    LIG   0.0000
  28 H            4.9952    -0.0355     2.7841 H            1    LIG   0.0000
  29 H            2.6000    -0.0406     2.7899 H            1    LIG   0.0000
  30 H            0.5000     0.1340     0.9972 H            1    LIG   0.0000
  31 H           -2.7341     3.5937     1.1329 H            1    LIG   0.0000
  32 H           -1.4077     4.0077     1.9907 H            1    LIG   0.0000
  33 H           -1.4077     4.1567     0.3646 H            1    LIG   0.0000
  34 H           -1.0854     0.7538    -0.5052 H            1    LIG   0.0000
  35 H           -1.8388     2.1223    -0.9811 H            1    LIG   0.0000
  36 H           -3.7217    -1.1252     0.1224 H            1    LIG   0.0000
  37 H           -4.6424    -0.2297     1.1309 H            1    LIG   0.0000
  38 H           -2.4219     1.8204     2.6465 H            1    LIG   0.0000
  39 H           -1.0449     0.9426     2.6583 H            1    LIG   0.0000
@<TRIPOS>BOND
   1        1        2 1
   2        2        3 1
   3        3        4 2
   4        3        5 1
   5        5        6 ar
   6        6        7 1
   7        6        8 ar
   8        8        9 ar
   9        9       10 ar
  10       10       11 1
  11       11       12 am
  12       12       13 2
  13       12       14 1
  14       14       15 1
  15       14       16 1
  16       16       17 1
  17       17       18 1
  18       18       19 1
  19       19       17 1
  20       19       20 1
  21       20       14 1
  22       10       21 ar
  23       21        5 ar
  24       21       22 1
  25       17       23 1
  26       19       24 1
  27        1       25 1
  28        1       26 1
  29        1       27 1
  30        8       28 1
  31        9       29 1
  32       11       30 1
  33       15       31 1
  34       15       32 1
  35       15       33 1
  36       16       34 1
  37       16       35 1
  38       18       36 1
  39       18       37 1
  40       20       38 1
  41       20       39 1

@<TRIPOS>MOLECULE

  39   41
SMALL
USER_CHARGES
@<TRIPOS>ATOM
   1 C1           6.2435     2.2590    -3.2012 C.3          1    LIG   0.0000
   2 O2           5.5335     1.5473    -2.1983 O.3          1    LIG   0.0000
   3 C3           5.2049     2.2435    -1.1384 C.2          1    LIG   0.0000
   4 O4           5.5057     3.4029    -1.0651 O.2          1    LIG   0.0000
   5 C5           4.4775     1.6130    -0.0534 C.ar         1    LIG   0.0000
   6 C6           5.1712     1.0067     0.9896 C.ar         1    LIG   0.0000
   7 Cl7          6.9509     0.9912     1.0167 Cl           1    LIG   0.0000
   8 C8           4.4894     0.3975     2.0380 C.ar         1    LIG   0.0000
   9 C9           3.0981     0.3954     2.0404 C.ar         1    LIG   0.0000
  10 C10          2.3998     1.0000     1.0000 C.ar         1    LIG   0.0000
  11 N11          1.0000     1.0000     1.0000 N.am         1    LIG   0.0000
  12 C12          0.3150     2.1864     1.0039 C.2          1    LIG   0.0000
  13 O13          0.9150     3.2257     1.0073 O.2          1    LIG   0.0000
  14 C14         -1.2063     2.1864     1.0039 C.3          1    LIG   0.0000
  15 C15         -1.7342     1.3628     2.1699 C.3          1    LIG   0.0000
  16 C16         -1.7081     3.6002     1.0085 C.3          1    LIG   0.0000
  17 C17         -3.0224     3.4602     0.2860 C.3          1    LIG   0.0000
  18 C18         -3.7466     3.7012    -0.9975 C.3          1    LIG   0.0000
  19 C19         -2.5160     2.8472    -0.9808 C.3          1    LIG   0.0000
  20 C20         -1.7833     1.6968    -0.3074 C.3          1    LIG   0.0000
  21 C21          3.0861     1.6083    -0.0457 C.ar         1    LIG   0.0000
  22 Cl22         2.1844     2.3794    -1.3730 Cl           1    LIG   0.0000
  23 H           -3.5285     2.7411     0.7622 H            1    LIG   0.0000
  24 H           -1.7860     3.4632    -1.2766 H            1    LIG   0.0000
  25 H            6.4473     1.6456    -3.9642 H            1    LIG   0.0000
  26 H            5.6851     3.0220    -3.5270 H            1    LIG   0.0000
  27 H            7.0979     2.6107    -2.8188 H            1    LIG   0.0000
  28 H            4.9952    -0.0355     2.7841 H            1    LIG   0.0000
  29 H            2.6000    -0.0406     2.7899 H            1    LIG   0.0000
  30 H            0.5000     0.1340     0.9972 H            1    LIG   0.0000
  31 H           -2.7341     1.3711     2.1581 H            1    LIG   0.0000
  32 H           -1.4077     0.4212     2.0877 H            1    LIG   0.0000
  33 H           -1.4077     1.7550     3.0299 H            1    LIG   0.0000
  34 H           -1.0854     4.2097     0.5178 H            1    LIG   0.0000
  35 H           -1.8388     3.9376     1.9408 H            1    LIG   0.0000
  36 H           -3.7217     4.6057    -1.4234 H            1    LIG   0.0000
  37 H           -4.6424     3.2845    -1.1520 H            1    LIG   0.0000
  38 H           -2.4219     0.9469    -0.1344 H            1    LIG   0.0000
  39 H           -1.0449     1.3756    -0.9005 H            1    LIG   0.0000
@<TRIPOS>BOND
   1        1        2 1
   2        2        3 1
   3        3        4 2
   4        3        5 1
   5        5        6 ar
   6        6        7 1
   7        6        8 ar
   8        8        9 ar
   9        9       10 ar
  10       10       11 1
  11       11       12 am
  12       12       13 2
  13       12       14 1
  14       14       15 1
  15       14       16 1
  16       16       17 1
  17       17       18 1
  18       18       19 1
  19       19       17 1
  20       19       20 1
  21       20       14 1
  22       10       21 ar
  23       21        5 ar
  24       21       22 1
  25       17       23 1
  26       19       24 1
  27        1       25 1
  28        1       26 1
  29        1       27 1
  30        8       28 1
  31        9       29 1
  32       11       30 1
  33       15       31 1
  34       15       32 1
  35       15       33 1
  36       16       34 1
  37       16       35 1
  38       18       36 1
  39       18       37 1
  40       20       38 1
  41       20       39 1

@<TRIPOS>MOLECULE

  39   41
SMALL
USER_CHARGES
@<TRIPOS>ATOM
   1 C1           6.2435     2.2590    -3.2012 C.3          1    LIG   0.0000
   2 O2           5.5335     1.5473    -2.1983 O.3          1    LIG   0.0000
   3 C3           5.2049     2.2435    -1.1384 C.2          1    LIG   0.0000
   4 O4           5.5057     3.4029    -1.0651 O.2          1    LIG   0.0000
   5 C5           4.4775     1.6130    -0.0534 C.ar         1    LIG   0.0000
   6 C6           5.1712     1.0067     0.9896 C.ar         1    LIG   0.0000
   7 Cl7          6.9509     0.9912     1.0167 Cl           1    LIG   0.0000
   8 C8           4.4894     0.3975     2.0380 C.ar         1    LIG   0.0000
   9 C9           3.0981     0.3954     2.0404 C.ar         1    LIG   0.0000
  10 C10          2.3998     1.0000     1.0000 C.ar         1    LIG   0.0000
  11 N11          1.0000     1.0000     1.0000 N.am         1    LIG   0.0000
  12 C12          0.3150     2.1864     1.0039 C.2          1    LIG   0.0000
  13 O13          0.9150     3.2257     1.0073 O.2          1    LIG   0.0000
  14 C14         -1.2063     2.1864     1.0039 C.3          1    LIG   0.0000
  15 C15         -1.7342     1.5885    -0.2924 C.3          1    LIG   0.0000
  16 C16         -1.7081     1.4755     2.2259 C.3          1    LIG   0.0000
  17 C17         -3.0224     2.1713     2.4660 C.3          1    LIG   0.0000
  18 C18         -3.7466     3.1623     3.3164 C.3          1    LIG   0.0000
  19 C19         -2.5160     3.5749     2.5684 C.3          1    LIG   0.0000
  20 C20         -1.7833     3.5669     1.2355 C.3          1    LIG   0.0000
  21 C21          3.0861     1.6083    -0.0457 C.ar         1    LIG   0.0000
  22 Cl22         2.1844     2.3794    -1.3730 Cl           1    LIG   0.0000
  23 H           -3.5285     2.1184     1.6051 H            1    LIG   0.0000
  24 H           -1.7860     3.5230     3.2499 H            1    LIG   0.0000
  25 H            6.4473     1.6456    -3.9642 H            1    LIG   0.0000
  26 H            5.6851     3.0220    -3.5270 H            1    LIG   0.0000
  27 H            7.0979     2.6107    -2.8188 H            1    LIG   0.0000
  28 H            4.9952    -0.0355     2.7841 H            1    LIG   0.0000
  29 H            2.6000    -0.0406     2.7899 H            1    LIG   0.0000
  30 H            0.5000     0.1340     0.9972 H            1    LIG   0.0000
  31 H           -2.7341     1.5945    -0.2793 H            1    LIG   0.0000
  32 H           -1.4077     2.1305    -1.0668 H            1    LIG   0.0000
  33 H           -1.4077     0.6476    -0.3827 H            1    LIG   0.0000
  34 H           -1.0854     1.5958     2.9991 H            1    LIG   0.0000
  35 H           -1.8388     0.4995     2.0519 H            1    LIG   0.0000
  36 H           -3.7217     3.0789     4.3126 H            1    LIG   0.0000
  37 H           -4.6424     3.5045     3.0328 H            1    LIG   0.0000
  38 H           -2.4219     3.7920     0.4996 H            1    LIG   0.0000
  39 H           -1.0449     4.2411     1.2539 H            1    LIG   0.0000
@<TRIPOS>BOND
   1        1        2 1
   2        2        3 1
   3        3        4 2
   4        3        5 1
   5        5        6 ar
   6        6        7 1
   7        6        8 ar
   8        8        9 ar
   9        9       10 ar
  10       10       11 1
  11       11       12 am
  12       12       13 2
  13       12       14 1
  14       14       15 1
  15       14       16 1
  16       16       17 1
  17       17       18 1
  18       18       19 1
  19       19       17 1
  20       19       20 1
  21       20       14 1
  22       10       21 ar
  23       21        5 ar
  24       21       22 1
  25       17       23 1
  26       19       24 1
  27        1       25 1
  28        1       26 1
  29        1       27 1
  30        8       28 1
  31        9       29 1
  32       11       30 1
  33       15       31 1
  34       15       32 1
  35       15       33 1
  36       16       34 1
  37       16       35 1
  38       18       36 1
  39       18       37 1
  40       20       38 1
  41       20       39 1

