@<TRIPOS>MOLECULE
*****
 39 41 0 0 0
SMALL
USER_CHARGES

@<TRIPOS>ATOM
      1 C1          6.2432    4.0282   -2.1732 C.3     1  LIG1        0.0000
      2 O2          5.5332    3.5092   -1.0583 O.3     1  LIG1        0.0000
      3 C3          5.2049    2.2435   -1.1384 C.2     1  LIG1        0.0000
      4 O4          5.5059    1.6058   -2.1093 O.2     1  LIG1        0.0000
      5 C5          4.4775    1.6130   -0.0534 C.3     1  LIG1        0.0000
      6 C6          5.1712    1.0067    0.9896 C.3     1  LIG1        0.0000
      7 Cl7         6.9509    0.9912    1.0167 Cl      1  LIG1        0.0000
      8 C8          4.4894    0.3975    2.0380 C.3     1  LIG1        0.0000
      9 C9          3.0981    0.3954    2.0404 C.3     1  LIG1        0.0000
     10 C10         2.3998    1.0000    1.0000 C.3     1  LIG1        0.0000
     11 N11         1.0000    1.0000    1.0000 N.am    1  LIG1        0.0000
     12 C12         0.3150    2.1864    1.0039 C.2     1  LIG1        0.0000
     13 O13         0.9150    3.2257    1.0073 O.2     1  LIG1        0.0000
     14 C14        -1.2063    2.1864    1.0039 C.3     1  LIG1        0.0000
     15 C15        -1.7342    3.6080    1.1342 C.3     1  LIG1        0.0000
     16 C16        -1.7081    1.4836   -0.2228 C.3     1  LIG1        0.0000
     17 C17        -3.0224    0.9278    0.2598 C.3     1  LIG1        0.0000
     18 C18        -3.7466   -0.3042    0.6927 C.3     1  LIG1        0.0000
     19 C19        -2.5160    0.1373    1.4241 C.3     1  LIG1        0.0000
     20 C20        -1.7833    1.2956    2.0836 C.3     1  LIG1        0.0000
     21 C21         3.0861    1.6083   -0.0457 C.3     1  LIG1        0.0000
     22 Cl22        2.1844    2.3794   -1.3730 Cl      1  LIG1        0.0000
     23 H          -3.5285    1.6998    0.6444 H       1  LIG1        0.0000
     24 H          -1.7860   -0.4269    1.0384 H       1  LIG1        0.0000
     25 H           6.4468    4.9949   -2.0180 H       1  LIG1        0.0000
     26 H           7.0978    3.5220   -2.2893 H       1  LIG1        0.0000
     27 H           5.6850    3.9333   -2.9975 H       1  LIG1        0.0000
     28 H           4.9952   -0.0355    2.7841 H       1  LIG1        0.0000
     29 H           2.6000   -0.0406    2.7899 H       1  LIG1        0.0000
     30 H           0.5000    0.1340    0.9972 H       1  LIG1        0.0000
     31 H          -2.7341    3.5937    1.1329 H       1  LIG1        0.0000
     32 H          -1.4077    4.0077    1.9907 H       1  LIG1        0.0000
     33 H          -1.4077    4.1567    0.3646 H       1  LIG1        0.0000
     34 H          -1.0854    0.7538   -0.5052 H       1  LIG1        0.0000
     35 H          -1.8388    2.1223   -0.9811 H       1  LIG1        0.0000
     36 H          -3.7217   -1.1252    0.1224 H       1  LIG1        0.0000
     37 H          -4.6424   -0.2297    1.1309 H       1  LIG1        0.0000
     38 H          -2.4219    1.8204    2.6465 H       1  LIG1        0.0000
     39 H          -1.0449    0.9426    2.6583 H       1  LIG1        0.0000
@<TRIPOS>BOND
     1     1     2    1
     2     2     3    1
     3     3     4    2
     4     3     5    1
     5     5     6   ar
     6     6     7    1
     7     6     8   ar
     8     8     9   ar
     9     9    10   ar
    10    10    11    1
    11    11    12   am
    12    12    13    2
    13    12    14    1
    14    14    15    1
    15    14    16    1
    16    16    17    1
    17    17    18    1
    18    18    19    1
    19    19    17    1
    20    19    20    1
    21    20    14    1
    22    10    21   ar
    23    21     5   ar
    24    21    22    1
    25    17    23    1
    26    19    24    1
    27     1    25    1
    28     1    26    1
    29     1    27    1
    30     8    28    1
    31     9    29    1
    32    11    30    1
    33    15    31    1
    34    15    32    1
    35    15    33    1
    36    16    34    1
    37    16    35    1
    38    18    36    1
    39    18    37    1
    40    20    38    1
    41    20    39    1
