@<TRIPOS>MOLECULE
*****
 39 41 0 0 0
SMALL
USER_CHARGES

@<TRIPOS>ATOM
      1 C1          6.2435    2.2590   -3.2012 C.3     1  LIG1        0.0000
      2 O2          5.5335    1.5473   -2.1983 O.3     1  LIG1        0.0000
      3 C3          5.2049    2.2435   -1.1384 C.2     1  LIG1        0.0000
      4 O4          5.5057    3.4029   -1.0651 O.2     1  LIG1        0.0000
      5 C5          4.4775    1.6130   -0.0534 C.3     1  LIG1        0.0000
      6 C6          5.1712    1.0067    0.9896 C.3     1  LIG1        0.0000
      7 Cl7         6.9509    0.9912    1.0167 Cl      1  LIG1        0.0000
      8 C8          4.4894    0.3975    2.0380 C.3     1  LIG1        0.0000
      9 C9          3.0981    0.3954    2.0404 C.3     1  LIG1        0.0000
     10 C10         2.3998    1.0000    1.0000 C.3     1  LIG1        0.0000
     11 N11         1.0000    1.0000    1.0000 N.am    1  LIG1        0.0000
     12 C12         0.3150    2.1864    1.0039 C.2     1  LIG1        0.0000
     13 O13         0.9150    3.2257    1.0073 O.2     1  LIG1        0.0000
     14 C14        -1.2063    2.1864    1.0039 C.3     1  LIG1        0.0000
     15 C15        -1.7342    1.3628    2.1699 C.3     1  LIG1        0.0000
     16 C16        -1.7081    3.6002    1.0085 C.3     1  LIG1        0.0000
     17 C17        -3.0224    3.4602    0.2860 C.3     1  LIG1        0.0000
     18 C18        -3.7466    3.7012   -0.9975 C.3     1  LIG1        0.0000
     19 C19        -2.5160    2.8472   -0.9808 C.3     1  LIG1        0.0000
     20 C20        -1.7833    1.6968   -0.3074 C.3     1  LIG1        0.0000
     21 C21         3.0861    1.6083   -0.0457 C.3     1  LIG1        0.0000
     22 Cl22        2.1844    2.3794   -1.3730 Cl      1  LIG1        0.0000
     23 H          -3.5285    2.7411    0.7622 H       1  LIG1        0.0000
     24 H          -1.7860    3.4632   -1.2766 H       1  LIG1        0.0000
     25 H           6.4473    1.6456   -3.9642 H       1  LIG1        0.0000
     26 H           5.6851    3.0220   -3.5270 H       1  LIG1        0.0000
     27 H           7.0979    2.6107   -2.8188 H       1  LIG1        0.0000
     28 H           4.9952   -0.0355    2.7841 H       1  LIG1        0.0000
     29 H           2.6000   -0.0406    2.7899 H       1  LIG1        0.0000
     30 H           0.5000    0.1340    0.9972 H       1  LIG1        0.0000
     31 H          -2.7341    1.3711    2.1581 H       1  LIG1        0.0000
     32 H          -1.4077    0.4212    2.0877 H       1  LIG1        0.0000
     33 H          -1.4077    1.7550    3.0299 H       1  LIG1        0.0000
     34 H          -1.0854    4.2097    0.5178 H       1  LIG1        0.0000
     35 H          -1.8388    3.9376    1.9408 H       1  LIG1        0.0000
     36 H          -3.7217    4.6057   -1.4234 H       1  LIG1        0.0000
     37 H          -4.6424    3.2845   -1.1520 H       1  LIG1        0.0000
     38 H          -2.4219    0.9469   -0.1344 H       1  LIG1        0.0000
     39 H          -1.0449    1.3756   -0.9005 H       1  LIG1        0.0000
@<TRIPOS>BOND
     1     1     2    1
     2     2     3    1
     3     3     4    2
     4     3     5    1
     5     5     6   ar
     6     6     7    1
     7     6     8   ar
     8     8     9   ar
     9     9    10   ar
    10    10    11    1
    11    11    12   am
    12    12    13    2
    13    12    14    1
    14    14    15    1
    15    14    16    1
    16    16    17    1
    17    17    18    1
    18    18    19    1
    19    19    17    1
    20    19    20    1
    21    20    14    1
    22    10    21   ar
    23    21     5   ar
    24    21    22    1
    25    17    23    1
    26    19    24    1
    27     1    25    1
    28     1    26    1
    29     1    27    1
    30     8    28    1
    31     9    29    1
    32    11    30    1
    33    15    31    1
    34    15    32    1
    35    15    33    1
    36    16    34    1
    37    16    35    1
    38    18    36    1
    39    18    37    1
    40    20    38    1
    41    20    39    1
