@<TRIPOS>MOLECULE
*****
 39 41 0 0 0
SMALL
USER_CHARGES

@<TRIPOS>ATOM
      1 C1          5.3582    3.4013   -3.1309 C.3     1  LIG1        0.0000
      2 O2          4.5519    2.8140   -2.1203 O.3     1  LIG1        0.0000
      3 C3          5.2049    2.2435   -1.1384 C.2     1  LIG1        0.0000
      4 O4          6.4049    2.2426   -1.1365 O.2     1  LIG1        0.0000
      5 C5          4.4775    1.6130   -0.0534 C.3     1  LIG1        0.0000
      6 C6          5.1712    1.0067    0.9896 C.3     1  LIG1        0.0000
      7 Cl7         6.9509    0.9912    1.0167 Cl      1  LIG1        0.0000
      8 C8          4.4894    0.3975    2.0380 C.3     1  LIG1        0.0000
      9 C9          3.0981    0.3954    2.0404 C.3     1  LIG1        0.0000
     10 C10         2.3998    1.0000    1.0000 C.3     1  LIG1        0.0000
     11 N11         1.0000    1.0000    1.0000 N.am    1  LIG1        0.0000
     12 C12         0.3150    2.1864    1.0039 C.2     1  LIG1        0.0000
     13 O13         0.9150    3.2257    1.0073 O.2     1  LIG1        0.0000
     14 C14        -1.2062    2.1864    1.0039 C.3     1  LIG1        0.0000
     15 C15        -1.7276    1.5318    2.2733 C.3     1  LIG1        0.0000
     16 C16        -1.7721    1.4884   -0.2144 C.3     1  LIG1        0.0000
     17 C17        -2.5311    2.5484   -0.9946 C.3     1  LIG1        0.0000
     18 C18        -3.8069    3.3353   -1.1523 C.3     1  LIG1        0.0000
     19 C19        -3.0754    3.3072    0.1586 C.3     1  LIG1        0.0000
     20 C20        -1.7493    3.5951    0.8293 C.3     1  LIG1        0.0000
     21 C21         3.0861    1.6083   -0.0457 C.3     1  LIG1        0.0000
     22 Cl22        2.1844    2.3794   -1.3730 Cl      1  LIG1        0.0000
     23 H          -1.8203    3.1406   -1.3741 H       1  LIG1        0.0000
     24 H          -3.5513    2.6454    0.7378 H       1  LIG1        0.0000
     25 H           4.7714    3.8080   -3.8311 H       1  LIG1        0.0000
     26 H           5.9354    4.1107   -2.7264 H       1  LIG1        0.0000
     27 H           5.9356    2.6988   -3.5468 H       1  LIG1        0.0000
     28 H           4.9952   -0.0355    2.7841 H       1  LIG1        0.0000
     29 H           2.6000   -0.0406    2.7899 H       1  LIG1        0.0000
     30 H           0.5000    0.1340    0.9972 H       1  LIG1        0.0000
     31 H          -2.7276    1.5365    2.2642 H       1  LIG1        0.0000
     32 H          -1.3991    0.5885    2.3210 H       1  LIG1        0.0000
     33 H          -1.3991    2.0398    3.0695 H       1  LIG1        0.0000
     34 H          -2.3902    0.7529    0.0631 H       1  LIG1        0.0000
     35 H          -1.0331    1.1101   -0.7719 H       1  LIG1        0.0000
     36 H          -4.6813    2.8601   -1.2498 H       1  LIG1        0.0000
     37 H          -3.8176    4.1695   -1.7038 H       1  LIG1        0.0000
     38 H          -1.1548    4.1490    0.2464 H       1  LIG1        0.0000
     39 H          -1.8739    4.0531    1.7094 H       1  LIG1        0.0000
@<TRIPOS>BOND
     1     1     2    1
     2     2     3    1
     3     3     4    2
     4     3     5    1
     5     5     6   ar
     6     6     7    1
     7     6     8   ar
     8     8     9   ar
     9     9    10   ar
    10    10    11    1
    11    11    12   am
    12    12    13    2
    13    12    14    1
    14    14    15    1
    15    14    16    1
    16    16    17    1
    17    17    18    1
    18    18    19    1
    19    19    17    1
    20    19    20    1
    21    20    14    1
    22    10    21   ar
    23    21     5   ar
    24    21    22    1
    25    17    23    1
    26    19    24    1
    27     1    25    1
    28     1    26    1
    29     1    27    1
    30     8    28    1
    31     9    29    1
    32    11    30    1
    33    15    31    1
    34    15    32    1
    35    15    33    1
    36    16    34    1
    37    16    35    1
    38    18    36    1
    39    18    37    1
    40    20    38    1
    41    20    39    1
