@<TRIPOS>MOLECULE
*****
 39 41 0 0 0
SMALL
USER_CHARGES

@<TRIPOS>ATOM
      1 C1          5.3582   -3.1450    3.3768 C.3     1  LIG1        0.0000
      2 O2          4.5519   -2.1311    2.7953 O.3     1  LIG1        0.0000
      3 C3          5.2049   -1.1461    2.2301 C.2     1  LIG1        0.0000
      4 O4          6.4049   -1.1444    2.2289 O.2     1  LIG1        0.0000
      5 C5          4.4775   -0.0576    1.6058 C.3     1  LIG1        0.0000
      6 C6          5.1712    0.9890    1.0057 C.3     1  LIG1        0.0000
      7 Cl7         6.9509    1.0159    0.9899 Cl      1  LIG1        0.0000
      8 C8          4.4894    2.0408    0.4023 C.3     1  LIG1        0.0000
      9 C9          3.0981    2.0437    0.4013 C.3     1  LIG1        0.0000
     10 C10         2.3998    1.0000    1.0000 C.3     1  LIG1        0.0000
     11 N11         1.0000    1.0000    1.0000 N.am    1  LIG1        0.0000
     12 C12         0.3150    2.1864    1.0039 C.2     1  LIG1        0.0000
     13 O13         0.9150    3.2257    1.0073 O.2     1  LIG1        0.0000
     14 C14        -1.2062    2.1864    1.0039 C.3     1  LIG1        0.0000
     15 C15        -1.7276    3.6131    0.9362 C.3     1  LIG1        0.0000
     16 C16        -1.7721    1.4804    2.2176 C.3     1  LIG1        0.0000
     17 C17        -2.5311    0.2747    1.6897 C.3     1  LIG1        0.0000
     18 C18        -3.8069   -0.2553    1.0871 C.3     1  LIG1        0.0000
     19 C19        -3.0754    0.8940    0.4559 C.3     1  LIG1        0.0000
     20 C20        -1.7493    1.3309   -0.1287 C.3     1  LIG1        0.0000
     21 C21         3.0861   -0.0497    1.6014 C.3     1  LIG1        0.0000
     22 Cl22        2.1844   -1.3811    2.3654 Cl      1  LIG1        0.0000
     23 H          -1.8203   -0.3500    1.3666 H       1  LIG1        0.0000
     24 H          -3.5513    1.7265    0.7395 H       1  LIG1        0.0000
     25 H           4.7714   -3.8474    3.7798 H       1  LIG1        0.0000
     26 H           5.9354   -3.5572    2.6718 H       1  LIG1        0.0000
     27 H           5.9356   -2.7446    4.0883 H       1  LIG1        0.0000
     28 H           4.9952    2.7888   -0.0273 H       1  LIG1        0.0000
     29 H           2.6000    2.7961   -0.0298 H       1  LIG1        0.0000
     30 H           0.5000    0.1340    0.9972 H       1  LIG1        0.0000
     31 H          -2.7276    3.6029    0.9366 H       1  LIG1        0.0000
     32 H          -1.3991    4.1261    1.7292 H       1  LIG1        0.0000
     33 H          -1.3991    4.0486    0.0981 H       1  LIG1        0.0000
     34 H          -2.3902    2.0885    2.7158 H       1  LIG1        0.0000
     35 H          -1.0331    1.1867    2.8239 H       1  LIG1        0.0000
     36 H          -4.6813   -0.1022    1.5474 H       1  LIG1        0.0000
     37 H          -3.8176   -1.1500    0.6404 H       1  LIG1        0.0000
     38 H          -1.1548    0.5492   -0.3170 H       1  LIG1        0.0000
     39 H          -1.8739    1.8641   -0.9655 H       1  LIG1        0.0000
@<TRIPOS>BOND
     1     1     2    1
     2     2     3    1
     3     3     4    2
     4     3     5    1
     5     5     6   ar
     6     6     7    1
     7     6     8   ar
     8     8     9   ar
     9     9    10   ar
    10    10    11    1
    11    11    12   am
    12    12    13    2
    13    12    14    1
    14    14    15    1
    15    14    16    1
    16    16    17    1
    17    17    18    1
    18    18    19    1
    19    19    17    1
    20    19    20    1
    21    20    14    1
    22    10    21   ar
    23    21     5   ar
    24    21    22    1
    25    17    23    1
    26    19    24    1
    27     1    25    1
    28     1    26    1
    29     1    27    1
    30     8    28    1
    31     9    29    1
    32    11    30    1
    33    15    31    1
    34    15    32    1
    35    15    33    1
    36    16    34    1
    37    16    35    1
    38    18    36    1
    39    18    37    1
    40    20    38    1
    41    20    39    1
