@<TRIPOS>MOLECULE

  27   28
SMALL
USER_CHARGES
@<TRIPOS>ATOM
   1 F1          -0.0531     2.9212    -4.4252 F            1    LIG   0.0000
   2 C2           1.2419     2.7827    -4.1555 C.3          1    LIG   0.0000
   3 F3           1.8165     3.9814    -4.1126 F            1    LIG   0.0000
   4 F4           1.8165     2.0493    -5.1046 F            1    LIG   0.0000
   5 C5           1.4089     2.0911    -2.8085 C.2          1    LIG   0.0000
   6 N6           2.2437     1.1357    -2.4805 N.2          1    LIG   0.0000
   7 N7           2.1761     0.7078    -1.2362 N.2          1    LIG   0.0000
   8 C8           1.2930     1.2930    -0.4649 C.2          1    LIG   0.0000
   9 C9           1.0000     1.0000     1.0000 C.3          1    LIG   0.0000
  10 O10          1.8198     1.8198     1.8198 O.3          1    LIG   0.0000
  11 C11          1.6578     1.6578     3.1511 C.ar         1    LIG   0.0000
  12 C12          0.7314     0.7295     3.6129 C.ar         1    LIG   0.0000
  13 C13          0.5499     0.5492     4.9800 C.ar         1    LIG   0.0000
  14 C14          1.2960     1.2965     5.8850 C.ar         1    LIG   0.0000
  15 C15          2.2237     2.2241     5.4229 C.ar         1    LIG   0.0000
  16 C16          2.4047     2.4047     4.0560 C.ar         1    LIG   0.0000
  17 C17          3.4184     3.4179     3.5513 C.3          1    LIG   0.0000
  18 F18          2.8273     4.5998     3.4020 F            1    LIG   0.0000
  19 F19          4.4114     3.5266     4.4294 F            1    LIG   0.0000
  20 F20          3.9039     3.0139     2.3809 F            1    LIG   0.0000
  21 S21          0.5065     2.4602    -1.4167 S.3          1    LIG   0.0000
  22 H            0.0377     1.1925     1.1925 H            1    LIG   0.0000
  23 H            1.1925     0.0377     1.1925 H            1    LIG   0.0000
  24 H            0.1957     0.1915     2.9621 H            1    LIG   0.0000
  25 H           -0.1170    -0.1178     5.3122 H            1    LIG   0.0000
  26 H            1.1655     1.1670     6.8680 H            1    LIG   0.0000
  27 H            2.7605     2.7611     6.0736 H            1    LIG   0.0000
@<TRIPOS>BOND
   1        1        2 1
   2        2        3 1
   3        2        4 1
   4        2        5 1
   5        5        6 2
   6        6        7 1
   7        7        8 2
   8        8        9 1
   9        9       10 1
  10       10       11 1
  11       11       12 ar
  12       12       13 ar
  13       13       14 ar
  14       14       15 ar
  15       15       16 ar
  16       16       11 ar
  17       16       17 1
  18       17       18 1
  19       17       19 1
  20       17       20 1
  21        8       21 1
  22       21        5 1
  23        9       22 1
  24        9       23 1
  25       12       24 1
  26       13       25 1
  27       14       26 1
  28       15       27 1

@<TRIPOS>MOLECULE

  27   28
SMALL
USER_CHARGES
@<TRIPOS>ATOM
   1 F1           1.8254     3.2592    -4.6812 F            1    LIG   0.0000
   2 C2           2.7529     2.7891    -3.8520 C.3          1    LIG   0.0000
   3 F3           3.5018     3.7948    -3.4085 F            1    LIG   0.0000
   4 F4           3.5210     1.9147    -4.4957 F            1    LIG   0.0000
   5 C5           2.0778     2.1003    -2.6729 C.2          1    LIG   0.0000
   6 N6           1.1564     1.1687    -2.6914 N.2          1    LIG   0.0000
   7 N7           0.7353     0.7455    -1.5168 N.2          1    LIG   0.0000
   8 C8           1.2930     1.2930    -0.4649 C.2          1    LIG   0.0000
   9 C9           1.0000     1.0000     1.0000 C.3          1    LIG   0.0000
  10 O10          1.8198     1.8198     1.8198 O.3          1    LIG   0.0000
  11 C11          1.6578     1.6578     3.1511 C.ar         1    LIG   0.0000
  12 C12          0.7314     0.7295     3.6129 C.ar         1    LIG   0.0000
  13 C13          0.5499     0.5492     4.9800 C.ar         1    LIG   0.0000
  14 C14          1.2960     1.2965     5.8850 C.ar         1    LIG   0.0000
  15 C15          2.2237     2.2241     5.4229 C.ar         1    LIG   0.0000
  16 C16          2.4047     2.4047     4.0560 C.ar         1    LIG   0.0000
  17 C17          3.4184     3.4179     3.5513 C.3          1    LIG   0.0000
  18 F18          2.8273     4.5998     3.4020 F            1    LIG   0.0000
  19 F19          4.4114     3.5266     4.4294 F            1    LIG   0.0000
  20 F20          3.9039     3.0139     2.3809 F            1    LIG   0.0000
  21 S21          2.4233     2.4233    -1.0407 S.3          1    LIG   0.0000
  22 H            0.0377     1.1925     1.1925 H            1    LIG   0.0000
  23 H            1.1925     0.0377     1.1925 H            1    LIG   0.0000
  24 H            0.1957     0.1915     2.9621 H            1    LIG   0.0000
  25 H           -0.1170    -0.1178     5.3122 H            1    LIG   0.0000
  26 H            1.1655     1.1670     6.8680 H            1    LIG   0.0000
  27 H            2.7605     2.7611     6.0736 H            1    LIG   0.0000
@<TRIPOS>BOND
   1        1        2 1
   2        2        3 1
   3        2        4 1
   4        2        5 1
   5        5        6 2
   6        6        7 1
   7        7        8 2
   8        8        9 1
   9        9       10 1
  10       10       11 1
  11       11       12 ar
  12       12       13 ar
  13       13       14 ar
  14       14       15 ar
  15       15       16 ar
  16       16       11 ar
  17       16       17 1
  18       17       18 1
  19       17       19 1
  20       17       20 1
  21        8       21 1
  22       21        5 1
  23        9       22 1
  24        9       23 1
  25       12       24 1
  26       13       25 1
  27       14       26 1
  28       15       27 1

@<TRIPOS>MOLECULE

  27   28
SMALL
USER_CHARGES
@<TRIPOS>ATOM
   1 F1           0.0199     1.1640    -4.7647 F            1    LIG   0.0000
   2 C2           1.3065     1.2703    -4.4450 C.3          1    LIG   0.0000
   3 F3           1.8261     2.3367    -5.0464 F            1    LIG   0.0000
   4 F4           1.9536     0.1782    -4.8420 F            1    LIG   0.0000
   5 C5           1.4439     1.4214    -2.9355 C.2          1    LIG   0.0000
   6 N6           2.2349     2.2225    -2.2649 N.2          1    LIG   0.0000
   7 N7           2.1584     2.1482    -0.9517 N.2          1    LIG   0.0000
   8 C8           1.2930     1.2930    -0.4649 C.2          1    LIG   0.0000
   9 C9           1.0000     1.0000     1.0000 C.3          1    LIG   0.0000
  10 O10          1.8198     1.8198     1.8198 O.3          1    LIG   0.0000
  11 C11          1.6578     1.6578     3.1511 C.ar         1    LIG   0.0000
  12 C12          0.7314     0.7295     3.6129 C.ar         1    LIG   0.0000
  13 C13          0.5499     0.5492     4.9800 C.ar         1    LIG   0.0000
  14 C14          1.2960     1.2965     5.8850 C.ar         1    LIG   0.0000
  15 C15          2.2237     2.2241     5.4229 C.ar         1    LIG   0.0000
  16 C16          2.4047     2.4047     4.0560 C.ar         1    LIG   0.0000
  17 C17          3.4184     3.4179     3.5513 C.3          1    LIG   0.0000
  18 F18          2.8273     4.5998     3.4020 F            1    LIG   0.0000
  19 F19          4.4114     3.5266     4.4294 F            1    LIG   0.0000
  20 F20          3.9039     3.0139     2.3809 F            1    LIG   0.0000
  21 S21          0.5433     0.5433    -1.7927 S.3          1    LIG   0.0000
  22 H            0.0377     1.1925     1.1925 H            1    LIG   0.0000
  23 H            1.1925     0.0377     1.1925 H            1    LIG   0.0000
  24 H            0.1957     0.1915     2.9621 H            1    LIG   0.0000
  25 H           -0.1170    -0.1178     5.3122 H            1    LIG   0.0000
  26 H            1.1655     1.1670     6.8680 H            1    LIG   0.0000
  27 H            2.7605     2.7611     6.0736 H            1    LIG   0.0000
@<TRIPOS>BOND
   1        1        2 1
   2        2        3 1
   3        2        4 1
   4        2        5 1
   5        5        6 2
   6        6        7 1
   7        7        8 2
   8        8        9 1
   9        9       10 1
  10       10       11 1
  11       11       12 ar
  12       12       13 ar
  13       13       14 ar
  14       14       15 ar
  15       15       16 ar
  16       16       11 ar
  17       16       17 1
  18       17       18 1
  19       17       19 1
  20       17       20 1
  21        8       21 1
  22       21        5 1
  23        9       22 1
  24        9       23 1
  25       12       24 1
  26       13       25 1
  27       14       26 1
  28       15       27 1

@<TRIPOS>MOLECULE

  27   28
SMALL
USER_CHARGES
@<TRIPOS>ATOM
   1 F1           1.9185     1.3114    -5.1211 F            1    LIG   0.0000
   2 C2           2.8175     1.2767    -4.1415 C.3          1    LIG   0.0000
   3 F3           3.6868     2.2704    -4.3022 F            1    LIG   0.0000
   4 F4           3.4625     0.1140    -4.1728 F            1    LIG   0.0000
   5 C5           2.1128     1.4306    -2.7999 C.2          1    LIG   0.0000
   6 N6           1.1476     2.2555    -2.4758 N.2          1    LIG   0.0000
   7 N7           0.7176     2.1859    -1.2323 N.2          1    LIG   0.0000
   8 C8           1.2930     1.2930    -0.4649 C.2          1    LIG   0.0000
   9 C9           1.0000     1.0000     1.0000 C.3          1    LIG   0.0000
  10 O10          1.8198     1.8198     1.8198 O.3          1    LIG   0.0000
  11 C11          1.6578     1.6578     3.1511 C.ar         1    LIG   0.0000
  12 C12          0.7314     0.7295     3.6129 C.ar         1    LIG   0.0000
  13 C13          0.5499     0.5492     4.9800 C.ar         1    LIG   0.0000
  14 C14          1.2960     1.2965     5.8850 C.ar         1    LIG   0.0000
  15 C15          2.2237     2.2241     5.4229 C.ar         1    LIG   0.0000
  16 C16          2.4047     2.4047     4.0560 C.ar         1    LIG   0.0000
  17 C17          3.4184     3.4179     3.5513 C.3          1    LIG   0.0000
  18 F18          2.8273     4.5998     3.4020 F            1    LIG   0.0000
  19 F19          4.4114     3.5266     4.4294 F            1    LIG   0.0000
  20 F20          3.9039     3.0139     2.3809 F            1    LIG   0.0000
  21 S21          2.4602     0.5065    -1.4167 S.3          1    LIG   0.0000
  22 H            0.0377     1.1925     1.1925 H            1    LIG   0.0000
  23 H            1.1925     0.0377     1.1925 H            1    LIG   0.0000
  24 H            0.1957     0.1915     2.9621 H            1    LIG   0.0000
  25 H           -0.1170    -0.1178     5.3122 H            1    LIG   0.0000
  26 H            1.1655     1.1670     6.8680 H            1    LIG   0.0000
  27 H            2.7605     2.7611     6.0736 H            1    LIG   0.0000
@<TRIPOS>BOND
   1        1        2 1
   2        2        3 1
   3        2        4 1
   4        2        5 1
   5        5        6 2
   6        6        7 1
   7        7        8 2
   8        8        9 1
   9        9       10 1
  10       10       11 1
  11       11       12 ar
  12       12       13 ar
  13       13       14 ar
  14       14       15 ar
  15       15       16 ar
  16       16       11 ar
  17       16       17 1
  18       17       18 1
  19       17       19 1
  20       17       20 1
  21        8       21 1
  22       21        5 1
  23        9       22 1
  24        9       23 1
  25       12       24 1
  26       13       25 1
  27       14       26 1
  28       15       27 1

@<TRIPOS>MOLECULE

  27   28
SMALL
USER_CHARGES
@<TRIPOS>ATOM
   1 F1          -0.0531     2.9212    -4.4252 F            1    LIG   0.0000
   2 C2           1.2419     2.7827    -4.1555 C.3          1    LIG   0.0000
   3 F3           1.8165     3.9814    -4.1126 F            1    LIG   0.0000
   4 F4           1.8165     2.0493    -5.1046 F            1    LIG   0.0000
   5 C5           1.4089     2.0911    -2.8085 C.2          1    LIG   0.0000
   6 N6           2.2437     1.1357    -2.4805 N.2          1    LIG   0.0000
   7 N7           2.1761     0.7078    -1.2362 N.2          1    LIG   0.0000
   8 C8           1.2930     1.2930    -0.4649 C.2          1    LIG   0.0000
   9 C9           1.0000     1.0000     1.0000 C.3          1    LIG   0.0000
  10 O10          1.8198     1.8198     1.8198 O.3          1    LIG   0.0000
  11 C11          3.0910     1.3930     1.9827 C.ar         1    LIG   0.0000
  12 C12          3.4974     0.2200     1.3565 C.ar         1    LIG   0.0000
  13 C13          4.8020    -0.2360     1.5130 C.ar         1    LIG   0.0000
  14 C14          5.7004     0.4822     2.2949 C.ar         1    LIG   0.0000
  15 C15          5.2942     1.6563     2.9201 C.ar         1    LIG   0.0000
  16 C16          3.9897     2.1118     2.7640 C.ar         1    LIG   0.0000
  17 C17          3.5461     3.3947     3.4468 C.3          1    LIG   0.0000
  18 F18          2.2200     3.4079     3.5472 F            1    LIG   0.0000
  19 F19          4.0833     3.4589     4.6618 F            1    LIG   0.0000
  20 F20          3.9468     4.4403     2.7291 F            1    LIG   0.0000
  21 S21          0.5065     2.4602    -1.4167 S.3          1    LIG   0.0000
  22 H            0.0377     1.1925     1.1925 H            1    LIG   0.0000
  23 H            1.1925     0.0377     1.1925 H            1    LIG   0.0000
  24 H            2.8516    -0.2959     0.7936 H            1    LIG   0.0000
  25 H            5.0941    -1.0801     1.0634 H            1    LIG   0.0000
  26 H            6.6384     0.1544     2.4076 H            1    LIG   0.0000
  27 H            5.9403     2.1730     3.4819 H            1    LIG   0.0000
@<TRIPOS>BOND
   1        1        2 1
   2        2        3 1
   3        2        4 1
   4        2        5 1
   5        5        6 2
   6        6        7 1
   7        7        8 2
   8        8        9 1
   9        9       10 1
  10       10       11 1
  11       11       12 ar
  12       12       13 ar
  13       13       14 ar
  14       14       15 ar
  15       15       16 ar
  16       16       11 ar
  17       16       17 1
  18       17       18 1
  19       17       19 1
  20       17       20 1
  21        8       21 1
  22       21        5 1
  23        9       22 1
  24        9       23 1
  25       12       24 1
  26       13       25 1
  27       14       26 1
  28       15       27 1

@<TRIPOS>MOLECULE

  27   28
SMALL
USER_CHARGES
@<TRIPOS>ATOM
   1 F1           1.8254     3.2592    -4.6812 F            1    LIG   0.0000
   2 C2           2.7529     2.7891    -3.8520 C.3          1    LIG   0.0000
   3 F3           3.5018     3.7948    -3.4085 F            1    LIG   0.0000
   4 F4           3.5210     1.9147    -4.4957 F            1    LIG   0.0000
   5 C5           2.0778     2.1003    -2.6729 C.2          1    LIG   0.0000
   6 N6           1.1564     1.1687    -2.6914 N.2          1    LIG   0.0000
   7 N7           0.7353     0.7455    -1.5168 N.2          1    LIG   0.0000
   8 C8           1.2930     1.2930    -0.4649 C.2          1    LIG   0.0000
   9 C9           1.0000     1.0000     1.0000 C.3          1    LIG   0.0000
  10 O10          1.8198     1.8198     1.8198 O.3          1    LIG   0.0000
  11 C11          3.0910     1.3930     1.9827 C.ar         1    LIG   0.0000
  12 C12          3.4974     0.2200     1.3565 C.ar         1    LIG   0.0000
  13 C13          4.8020    -0.2360     1.5130 C.ar         1    LIG   0.0000
  14 C14          5.7004     0.4822     2.2949 C.ar         1    LIG   0.0000
  15 C15          5.2942     1.6563     2.9201 C.ar         1    LIG   0.0000
  16 C16          3.9897     2.1118     2.7640 C.ar         1    LIG   0.0000
  17 C17          3.5461     3.3947     3.4468 C.3          1    LIG   0.0000
  18 F18          2.2200     3.4079     3.5472 F            1    LIG   0.0000
  19 F19          4.0833     3.4589     4.6618 F            1    LIG   0.0000
  20 F20          3.9468     4.4403     2.7291 F            1    LIG   0.0000
  21 S21          2.4233     2.4233    -1.0407 S.3          1    LIG   0.0000
  22 H            0.0377     1.1925     1.1925 H            1    LIG   0.0000
  23 H            1.1925     0.0377     1.1925 H            1    LIG   0.0000
  24 H            2.8516    -0.2959     0.7936 H            1    LIG   0.0000
  25 H            5.0941    -1.0801     1.0634 H            1    LIG   0.0000
  26 H            6.6384     0.1544     2.4076 H            1    LIG   0.0000
  27 H            5.9403     2.1730     3.4819 H            1    LIG   0.0000
@<TRIPOS>BOND
   1        1        2 1
   2        2        3 1
   3        2        4 1
   4        2        5 1
   5        5        6 2
   6        6        7 1
   7        7        8 2
   8        8        9 1
   9        9       10 1
  10       10       11 1
  11       11       12 ar
  12       12       13 ar
  13       13       14 ar
  14       14       15 ar
  15       15       16 ar
  16       16       11 ar
  17       16       17 1
  18       17       18 1
  19       17       19 1
  20       17       20 1
  21        8       21 1
  22       21        5 1
  23        9       22 1
  24        9       23 1
  25       12       24 1
  26       13       25 1
  27       14       26 1
  28       15       27 1

@<TRIPOS>MOLECULE

  27   28
SMALL
USER_CHARGES
@<TRIPOS>ATOM
   1 F1           0.0199     1.1640    -4.7647 F            1    LIG   0.0000
   2 C2           1.3065     1.2703    -4.4450 C.3          1    LIG   0.0000
   3 F3           1.8261     2.3367    -5.0464 F            1    LIG   0.0000
   4 F4           1.9536     0.1782    -4.8420 F            1    LIG   0.0000
   5 C5           1.4439     1.4214    -2.9355 C.2          1    LIG   0.0000
   6 N6           2.2349     2.2225    -2.2649 N.2          1    LIG   0.0000
   7 N7           2.1584     2.1482    -0.9517 N.2          1    LIG   0.0000
   8 C8           1.2930     1.2930    -0.4649 C.2          1    LIG   0.0000
   9 C9           1.0000     1.0000     1.0000 C.3          1    LIG   0.0000
  10 O10          1.8198     1.8198     1.8198 O.3          1    LIG   0.0000
  11 C11          3.0910     1.3930     1.9827 C.ar         1    LIG   0.0000
  12 C12          3.4974     0.2200     1.3565 C.ar         1    LIG   0.0000
  13 C13          4.8020    -0.2360     1.5130 C.ar         1    LIG   0.0000
  14 C14          5.7004     0.4822     2.2949 C.ar         1    LIG   0.0000
  15 C15          5.2942     1.6563     2.9201 C.ar         1    LIG   0.0000
  16 C16          3.9897     2.1118     2.7640 C.ar         1    LIG   0.0000
  17 C17          3.5461     3.3947     3.4468 C.3          1    LIG   0.0000
  18 F18          2.2200     3.4079     3.5472 F            1    LIG   0.0000
  19 F19          4.0833     3.4589     4.6618 F            1    LIG   0.0000
  20 F20          3.9468     4.4403     2.7291 F            1    LIG   0.0000
  21 S21          0.5433     0.5433    -1.7927 S.3          1    LIG   0.0000
  22 H            0.0377     1.1925     1.1925 H            1    LIG   0.0000
  23 H            1.1925     0.0377     1.1925 H            1    LIG   0.0000
  24 H            2.8516    -0.2959     0.7936 H            1    LIG   0.0000
  25 H            5.0941    -1.0801     1.0634 H            1    LIG   0.0000
  26 H            6.6384     0.1544     2.4076 H            1    LIG   0.0000
  27 H            5.9403     2.1730     3.4819 H            1    LIG   0.0000
@<TRIPOS>BOND
   1        1        2 1
   2        2        3 1
   3        2        4 1
   4        2        5 1
   5        5        6 2
   6        6        7 1
   7        7        8 2
   8        8        9 1
   9        9       10 1
  10       10       11 1
  11       11       12 ar
  12       12       13 ar
  13       13       14 ar
  14       14       15 ar
  15       15       16 ar
  16       16       11 ar
  17       16       17 1
  18       17       18 1
  19       17       19 1
  20       17       20 1
  21        8       21 1
  22       21        5 1
  23        9       22 1
  24        9       23 1
  25       12       24 1
  26       13       25 1
  27       14       26 1
  28       15       27 1

@<TRIPOS>MOLECULE

  27   28
SMALL
USER_CHARGES
@<TRIPOS>ATOM
   1 F1           1.9185     1.3114    -5.1211 F            1    LIG   0.0000
   2 C2           2.8175     1.2767    -4.1415 C.3          1    LIG   0.0000
   3 F3           3.6868     2.2704    -4.3022 F            1    LIG   0.0000
   4 F4           3.4625     0.1140    -4.1728 F            1    LIG   0.0000
   5 C5           2.1128     1.4306    -2.7999 C.2          1    LIG   0.0000
   6 N6           1.1476     2.2555    -2.4758 N.2          1    LIG   0.0000
   7 N7           0.7176     2.1859    -1.2323 N.2          1    LIG   0.0000
   8 C8           1.2930     1.2930    -0.4649 C.2          1    LIG   0.0000
   9 C9           1.0000     1.0000     1.0000 C.3          1    LIG   0.0000
  10 O10          1.8198     1.8198     1.8198 O.3          1    LIG   0.0000
  11 C11          3.0910     1.3930     1.9827 C.ar         1    LIG   0.0000
  12 C12          3.4974     0.2200     1.3565 C.ar         1    LIG   0.0000
  13 C13          4.8020    -0.2360     1.5130 C.ar         1    LIG   0.0000
  14 C14          5.7004     0.4822     2.2949 C.ar         1    LIG   0.0000
  15 C15          5.2942     1.6563     2.9201 C.ar         1    LIG   0.0000
  16 C16          3.9897     2.1118     2.7640 C.ar         1    LIG   0.0000
  17 C17          3.5461     3.3947     3.4468 C.3          1    LIG   0.0000
  18 F18          2.2200     3.4079     3.5472 F            1    LIG   0.0000
  19 F19          4.0833     3.4589     4.6618 F            1    LIG   0.0000
  20 F20          3.9468     4.4403     2.7291 F            1    LIG   0.0000
  21 S21          2.4602     0.5065    -1.4167 S.3          1    LIG   0.0000
  22 H            0.0377     1.1925     1.1925 H            1    LIG   0.0000
  23 H            1.1925     0.0377     1.1925 H            1    LIG   0.0000
  24 H            2.8516    -0.2959     0.7936 H            1    LIG   0.0000
  25 H            5.0941    -1.0801     1.0634 H            1    LIG   0.0000
  26 H            6.6384     0.1544     2.4076 H            1    LIG   0.0000
  27 H            5.9403     2.1730     3.4819 H            1    LIG   0.0000
@<TRIPOS>BOND
   1        1        2 1
   2        2        3 1
   3        2        4 1
   4        2        5 1
   5        5        6 2
   6        6        7 1
   7        7        8 2
   8        8        9 1
   9        9       10 1
  10       10       11 1
  11       11       12 ar
  12       12       13 ar
  13       13       14 ar
  14       14       15 ar
  15       15       16 ar
  16       16       11 ar
  17       16       17 1
  18       17       18 1
  19       17       19 1
  20       17       20 1
  21        8       21 1
  22       21        5 1
  23        9       22 1
  24        9       23 1
  25       12       24 1
  26       13       25 1
  27       14       26 1
  28       15       27 1

@<TRIPOS>MOLECULE

  27   28
SMALL
USER_CHARGES
@<TRIPOS>ATOM
   1 F1          -0.0531     2.9212    -4.4252 F            1    LIG   0.0000
   2 C2           1.2419     2.7827    -4.1555 C.3          1    LIG   0.0000
   3 F3           1.8165     3.9814    -4.1126 F            1    LIG   0.0000
   4 F4           1.8165     2.0493    -5.1046 F            1    LIG   0.0000
   5 C5           1.4089     2.0911    -2.8085 C.2          1    LIG   0.0000
   6 N6           2.2437     1.1357    -2.4805 N.2          1    LIG   0.0000
   7 N7           2.1761     0.7078    -1.2362 N.2          1    LIG   0.0000
   8 C8           1.2930     1.2930    -0.4649 C.2          1    LIG   0.0000
   9 C9           1.0000     1.0000     1.0000 C.3          1    LIG   0.0000
  10 O10          1.8198     1.8198     1.8198 O.3          1    LIG   0.0000
  11 C11          1.3930     3.0910     1.9827 C.ar         1    LIG   0.0000
  12 C12          0.2185     3.4966     1.3587 C.ar         1    LIG   0.0000
  13 C13         -0.2366     4.8017     1.5139 C.ar         1    LIG   0.0000
  14 C14          0.4826     5.7006     2.2943 C.ar         1    LIG   0.0000
  15 C15          1.6566     5.2944     2.9196 C.ar         1    LIG   0.0000
  16 C16          2.1118     3.9897     2.7640 C.ar         1    LIG   0.0000
  17 C17          3.3943     3.5459     3.4474 C.3          1    LIG   0.0000
  18 F18          4.1317     4.6128     3.7421 F            1    LIG   0.0000
  19 F19          3.0967     2.8901     4.5656 F            1    LIG   0.0000
  20 F20          4.0770     2.7463     2.6329 F            1    LIG   0.0000
  21 S21          0.5065     2.4602    -1.4167 S.3          1    LIG   0.0000
  22 H            0.0377     1.1925     1.1925 H            1    LIG   0.0000
  23 H            1.1925     0.0377     1.1925 H            1    LIG   0.0000
  24 H           -0.2990     2.8500     0.7983 H            1    LIG   0.0000
  25 H           -1.0807     5.0937     1.0644 H            1    LIG   0.0000
  26 H            0.1555     6.6391     2.4059 H            1    LIG   0.0000
  27 H            2.1734     5.9405     3.4812 H            1    LIG   0.0000
@<TRIPOS>BOND
   1        1        2 1
   2        2        3 1
   3        2        4 1
   4        2        5 1
   5        5        6 2
   6        6        7 1
   7        7        8 2
   8        8        9 1
   9        9       10 1
  10       10       11 1
  11       11       12 ar
  12       12       13 ar
  13       13       14 ar
  14       14       15 ar
  15       15       16 ar
  16       16       11 ar
  17       16       17 1
  18       17       18 1
  19       17       19 1
  20       17       20 1
  21        8       21 1
  22       21        5 1
  23        9       22 1
  24        9       23 1
  25       12       24 1
  26       13       25 1
  27       14       26 1
  28       15       27 1

@<TRIPOS>MOLECULE

  27   28
SMALL
USER_CHARGES
@<TRIPOS>ATOM
   1 F1           1.8254     3.2592    -4.6812 F            1    LIG   0.0000
   2 C2           2.7529     2.7891    -3.8520 C.3          1    LIG   0.0000
   3 F3           3.5018     3.7948    -3.4085 F            1    LIG   0.0000
   4 F4           3.5210     1.9147    -4.4957 F            1    LIG   0.0000
   5 C5           2.0778     2.1003    -2.6729 C.2          1    LIG   0.0000
   6 N6           1.1564     1.1687    -2.6914 N.2          1    LIG   0.0000
   7 N7           0.7353     0.7455    -1.5168 N.2          1    LIG   0.0000
   8 C8           1.2930     1.2930    -0.4649 C.2          1    LIG   0.0000
   9 C9           1.0000     1.0000     1.0000 C.3          1    LIG   0.0000
  10 O10          1.8198     1.8198     1.8198 O.3          1    LIG   0.0000
  11 C11          1.3930     3.0910     1.9827 C.ar         1    LIG   0.0000
  12 C12          0.2185     3.4966     1.3587 C.ar         1    LIG   0.0000
  13 C13         -0.2366     4.8017     1.5139 C.ar         1    LIG   0.0000
  14 C14          0.4826     5.7006     2.2943 C.ar         1    LIG   0.0000
  15 C15          1.6566     5.2944     2.9196 C.ar         1    LIG   0.0000
  16 C16          2.1118     3.9897     2.7640 C.ar         1    LIG   0.0000
  17 C17          3.3943     3.5459     3.4474 C.3          1    LIG   0.0000
  18 F18          4.1317     4.6128     3.7421 F            1    LIG   0.0000
  19 F19          3.0967     2.8901     4.5656 F            1    LIG   0.0000
  20 F20          4.0770     2.7463     2.6329 F            1    LIG   0.0000
  21 S21          2.4233     2.4233    -1.0407 S.3          1    LIG   0.0000
  22 H            0.0377     1.1925     1.1925 H            1    LIG   0.0000
  23 H            1.1925     0.0377     1.1925 H            1    LIG   0.0000
  24 H           -0.2990     2.8500     0.7983 H            1    LIG   0.0000
  25 H           -1.0807     5.0937     1.0644 H            1    LIG   0.0000
  26 H            0.1555     6.6391     2.4059 H            1    LIG   0.0000
  27 H            2.1734     5.9405     3.4812 H            1    LIG   0.0000
@<TRIPOS>BOND
   1        1        2 1
   2        2        3 1
   3        2        4 1
   4        2        5 1
   5        5        6 2
   6        6        7 1
   7        7        8 2
   8        8        9 1
   9        9       10 1
  10       10       11 1
  11       11       12 ar
  12       12       13 ar
  13       13       14 ar
  14       14       15 ar
  15       15       16 ar
  16       16       11 ar
  17       16       17 1
  18       17       18 1
  19       17       19 1
  20       17       20 1
  21        8       21 1
  22       21        5 1
  23        9       22 1
  24        9       23 1
  25       12       24 1
  26       13       25 1
  27       14       26 1
  28       15       27 1

@<TRIPOS>MOLECULE

  27   28
SMALL
USER_CHARGES
@<TRIPOS>ATOM
   1 F1           0.0199     1.1640    -4.7647 F            1    LIG   0.0000
   2 C2           1.3065     1.2703    -4.4450 C.3          1    LIG   0.0000
   3 F3           1.8261     2.3367    -5.0464 F            1    LIG   0.0000
   4 F4           1.9536     0.1782    -4.8420 F            1    LIG   0.0000
   5 C5           1.4439     1.4214    -2.9355 C.2          1    LIG   0.0000
   6 N6           2.2349     2.2225    -2.2649 N.2          1    LIG   0.0000
   7 N7           2.1584     2.1482    -0.9517 N.2          1    LIG   0.0000
   8 C8           1.2930     1.2930    -0.4649 C.2          1    LIG   0.0000
   9 C9           1.0000     1.0000     1.0000 C.3          1    LIG   0.0000
  10 O10          1.8198     1.8198     1.8198 O.3          1    LIG   0.0000
  11 C11          1.3930     3.0910     1.9827 C.ar         1    LIG   0.0000
  12 C12          0.2185     3.4966     1.3587 C.ar         1    LIG   0.0000
  13 C13         -0.2366     4.8017     1.5139 C.ar         1    LIG   0.0000
  14 C14          0.4826     5.7006     2.2943 C.ar         1    LIG   0.0000
  15 C15          1.6566     5.2944     2.9196 C.ar         1    LIG   0.0000
  16 C16          2.1118     3.9897     2.7640 C.ar         1    LIG   0.0000
  17 C17          3.3943     3.5459     3.4474 C.3          1    LIG   0.0000
  18 F18          4.1317     4.6128     3.7421 F            1    LIG   0.0000
  19 F19          3.0967     2.8901     4.5656 F            1    LIG   0.0000
  20 F20          4.0770     2.7463     2.6329 F            1    LIG   0.0000
  21 S21          0.5433     0.5433    -1.7927 S.3          1    LIG   0.0000
  22 H            0.0377     1.1925     1.1925 H            1    LIG   0.0000
  23 H            1.1925     0.0377     1.1925 H            1    LIG   0.0000
  24 H           -0.2990     2.8500     0.7983 H            1    LIG   0.0000
  25 H           -1.0807     5.0937     1.0644 H            1    LIG   0.0000
  26 H            0.1555     6.6391     2.4059 H            1    LIG   0.0000
  27 H            2.1734     5.9405     3.4812 H            1    LIG   0.0000
@<TRIPOS>BOND
   1        1        2 1
   2        2        3 1
   3        2        4 1
   4        2        5 1
   5        5        6 2
   6        6        7 1
   7        7        8 2
   8        8        9 1
   9        9       10 1
  10       10       11 1
  11       11       12 ar
  12       12       13 ar
  13       13       14 ar
  14       14       15 ar
  15       15       16 ar
  16       16       11 ar
  17       16       17 1
  18       17       18 1
  19       17       19 1
  20       17       20 1
  21        8       21 1
  22       21        5 1
  23        9       22 1
  24        9       23 1
  25       12       24 1
  26       13       25 1
  27       14       26 1
  28       15       27 1

@<TRIPOS>MOLECULE

  27   28
SMALL
USER_CHARGES
@<TRIPOS>ATOM
   1 F1           1.9185     1.3114    -5.1211 F            1    LIG   0.0000
   2 C2           2.8175     1.2767    -4.1415 C.3          1    LIG   0.0000
   3 F3           3.6868     2.2704    -4.3022 F            1    LIG   0.0000
   4 F4           3.4625     0.1140    -4.1728 F            1    LIG   0.0000
   5 C5           2.1128     1.4306    -2.7999 C.2          1    LIG   0.0000
   6 N6           1.1476     2.2555    -2.4758 N.2          1    LIG   0.0000
   7 N7           0.7176     2.1859    -1.2323 N.2          1    LIG   0.0000
   8 C8           1.2930     1.2930    -0.4649 C.2          1    LIG   0.0000
   9 C9           1.0000     1.0000     1.0000 C.3          1    LIG   0.0000
  10 O10          1.8198     1.8198     1.8198 O.3          1    LIG   0.0000
  11 C11          1.3930     3.0910     1.9827 C.ar         1    LIG   0.0000
  12 C12          0.2185     3.4966     1.3587 C.ar         1    LIG   0.0000
  13 C13         -0.2366     4.8017     1.5139 C.ar         1    LIG   0.0000
  14 C14          0.4826     5.7006     2.2943 C.ar         1    LIG   0.0000
  15 C15          1.6566     5.2944     2.9196 C.ar         1    LIG   0.0000
  16 C16          2.1118     3.9897     2.7640 C.ar         1    LIG   0.0000
  17 C17          3.3943     3.5459     3.4474 C.3          1    LIG   0.0000
  18 F18          4.1317     4.6128     3.7421 F            1    LIG   0.0000
  19 F19          3.0967     2.8901     4.5656 F            1    LIG   0.0000
  20 F20          4.0770     2.7463     2.6329 F            1    LIG   0.0000
  21 S21          2.4602     0.5065    -1.4167 S.3          1    LIG   0.0000
  22 H            0.0377     1.1925     1.1925 H            1    LIG   0.0000
  23 H            1.1925     0.0377     1.1925 H            1    LIG   0.0000
  24 H           -0.2990     2.8500     0.7983 H            1    LIG   0.0000
  25 H           -1.0807     5.0937     1.0644 H            1    LIG   0.0000
  26 H            0.1555     6.6391     2.4059 H            1    LIG   0.0000
  27 H            2.1734     5.9405     3.4812 H            1    LIG   0.0000
@<TRIPOS>BOND
   1        1        2 1
   2        2        3 1
   3        2        4 1
   4        2        5 1
   5        5        6 2
   6        6        7 1
   7        7        8 2
   8        8        9 1
   9        9       10 1
  10       10       11 1
  11       11       12 ar
  12       12       13 ar
  13       13       14 ar
  14       14       15 ar
  15       15       16 ar
  16       16       11 ar
  17       16       17 1
  18       17       18 1
  19       17       19 1
  20       17       20 1
  21        8       21 1
  22       21        5 1
  23        9       22 1
  24        9       23 1
  25       12       24 1
  26       13       25 1
  27       14       26 1
  28       15       27 1

