@<TRIPOS>MOLECULE
*****
 27 28 0 0 0
SMALL
USER_CHARGES

@<TRIPOS>ATOM
      1 F1          1.8254    3.2592   -4.6812 F       1  LIG1        0.0000
      2 C2          2.7529    2.7891   -3.8520 C.3     1  LIG1        0.0000
      3 F3          3.5018    3.7948   -3.4085 F       1  LIG1        0.0000
      4 F4          3.5210    1.9147   -4.4957 F       1  LIG1        0.0000
      5 C5          2.0778    2.1003   -2.6729 C.2     1  LIG1        0.0000
      6 N6          1.1564    1.1687   -2.6914 N.2     1  LIG1        0.0000
      7 N7          0.7353    0.7455   -1.5168 N.2     1  LIG1        0.0000
      8 C8          1.2930    1.2930   -0.4649 C.2     1  LIG1        0.0000
      9 C9          1.0000    1.0000    1.0000 C.3     1  LIG1        0.0000
     10 O10         1.8198    1.8198    1.8198 O.3     1  LIG1        0.0000
     11 C11         1.6578    1.6578    3.1511 C.ar    1  LIG1        0.0000
     12 C12         0.7314    0.7295    3.6129 C.ar    1  LIG1        0.0000
     13 C13         0.5499    0.5492    4.9800 C.ar    1  LIG1        0.0000
     14 C14         1.2960    1.2965    5.8850 C.ar    1  LIG1        0.0000
     15 C15         2.2237    2.2241    5.4229 C.ar    1  LIG1        0.0000
     16 C16         2.4047    2.4047    4.0560 C.ar    1  LIG1        0.0000
     17 C17         3.4184    3.4179    3.5513 C.3     1  LIG1        0.0000
     18 F18         2.8273    4.5998    3.4020 F       1  LIG1        0.0000
     19 F19         4.4114    3.5266    4.4294 F       1  LIG1        0.0000
     20 F20         3.9039    3.0139    2.3809 F       1  LIG1        0.0000
     21 S21         2.4233    2.4233   -1.0407 S.3     1  LIG1        0.0000
     22 H           0.0377    1.1925    1.1925 H       1  LIG1        0.0000
     23 H           1.1925    0.0377    1.1925 H       1  LIG1        0.0000
     24 H           0.1957    0.1915    2.9621 H       1  LIG1        0.0000
     25 H          -0.1170   -0.1178    5.3122 H       1  LIG1        0.0000
     26 H           1.1655    1.1670    6.8680 H       1  LIG1        0.0000
     27 H           2.7605    2.7611    6.0736 H       1  LIG1        0.0000
@<TRIPOS>BOND
     1     1     2    1
     2     2     3    1
     3     2     4    1
     4     2     5    1
     5     5     6    2
     6     6     7    1
     7     7     8    2
     8     8     9    1
     9     9    10    1
    10    10    11    1
    11    11    12   ar
    12    12    13   ar
    13    13    14   ar
    14    14    15   ar
    15    15    16   ar
    16    16    11   ar
    17    16    17    1
    18    17    18    1
    19    17    19    1
    20    17    20    1
    21     8    21    1
    22    21     5    1
    23     9    22    1
    24     9    23    1
    25    12    24    1
    26    13    25    1
    27    14    26    1
    28    15    27    1
