@<TRIPOS>MOLECULE
*****
 27 28 0 0 0
SMALL
USER_CHARGES

@<TRIPOS>ATOM
      1 F1          1.8254    3.2592   -4.6812 F       1  LIG1        0.0000
      2 C2          2.7529    2.7891   -3.8520 C.3     1  LIG1        0.0000
      3 F3          3.5018    3.7948   -3.4085 F       1  LIG1        0.0000
      4 F4          3.5210    1.9147   -4.4957 F       1  LIG1        0.0000
      5 C5          2.0778    2.1003   -2.6729 C.2     1  LIG1        0.0000
      6 N6          1.1564    1.1687   -2.6914 N.2     1  LIG1        0.0000
      7 N7          0.7353    0.7455   -1.5168 N.2     1  LIG1        0.0000
      8 C8          1.2930    1.2930   -0.4649 C.2     1  LIG1        0.0000
      9 C9          1.0000    1.0000    1.0000 C.3     1  LIG1        0.0000
     10 O10         1.8198    1.8198    1.8198 O.3     1  LIG1        0.0000
     11 C11         3.0910    1.3930    1.9827 C.ar    1  LIG1        0.0000
     12 C12         3.4974    0.2200    1.3565 C.ar    1  LIG1        0.0000
     13 C13         4.8020   -0.2360    1.5130 C.ar    1  LIG1        0.0000
     14 C14         5.7004    0.4822    2.2949 C.ar    1  LIG1        0.0000
     15 C15         5.2942    1.6563    2.9201 C.ar    1  LIG1        0.0000
     16 C16         3.9897    2.1118    2.7640 C.ar    1  LIG1        0.0000
     17 C17         3.5461    3.3947    3.4468 C.3     1  LIG1        0.0000
     18 F18         2.2200    3.4079    3.5472 F       1  LIG1        0.0000
     19 F19         4.0833    3.4589    4.6618 F       1  LIG1        0.0000
     20 F20         3.9468    4.4403    2.7291 F       1  LIG1        0.0000
     21 S21         2.4233    2.4233   -1.0407 S.3     1  LIG1        0.0000
     22 H           0.0377    1.1925    1.1925 H       1  LIG1        0.0000
     23 H           1.1925    0.0377    1.1925 H       1  LIG1        0.0000
     24 H           2.8516   -0.2959    0.7936 H       1  LIG1        0.0000
     25 H           5.0941   -1.0801    1.0634 H       1  LIG1        0.0000
     26 H           6.6384    0.1544    2.4076 H       1  LIG1        0.0000
     27 H           5.9403    2.1730    3.4819 H       1  LIG1        0.0000
@<TRIPOS>BOND
     1     1     2    1
     2     2     3    1
     3     2     4    1
     4     2     5    1
     5     5     6    2
     6     6     7    1
     7     7     8    2
     8     8     9    1
     9     9    10    1
    10    10    11    1
    11    11    12   ar
    12    12    13   ar
    13    13    14   ar
    14    14    15   ar
    15    15    16   ar
    16    16    11   ar
    17    16    17    1
    18    17    18    1
    19    17    19    1
    20    17    20    1
    21     8    21    1
    22    21     5    1
    23     9    22    1
    24     9    23    1
    25    12    24    1
    26    13    25    1
    27    14    26    1
    28    15    27    1
