@<TRIPOS>MOLECULE

  68   71
SMALL
USER_CHARGES
@<TRIPOS>ATOM
   1 C1           1.5187    -6.5289     1.3627 C.3          1    LIG   0.0000
   2 C2           2.9078    -5.9123     1.3349 C.3          1    LIG   0.0000
   3 O3           2.7967    -4.4983     1.2663 O.3          1    LIG   0.0000
   4 C4           3.9313    -3.8443     1.2364 C.2          1    LIG   0.0000
   5 O5           4.9704    -4.4438     1.2669 O.2          1    LIG   0.0000
   6 C6           3.9317    -2.3942     1.1662 C.2          1    LIG   0.0000
   7 S7           5.3318    -1.4225     1.1213 S.3          1    LIG   0.0000
   8 C8           4.4922     0.0539     1.0500 C.ar         1    LIG   0.0000
   9 N9           5.1195     1.2293     0.9918 N.ar         1    LIG   0.0000
  10 C10          4.3414     2.3115     0.9365 C.ar         1    LIG   0.0000
  11 C11          5.0558     3.6491     0.8682 C.3          1    LIG   0.0000
  12 N12          5.2864     4.1515     2.2303 N.4          1    LIG   1.0000
  13 C13          3.9967     4.3193     2.9156 C.3          1    LIG   0.0000
  14 C14          6.1147     3.1909     2.9733 C.3          1    LIG   0.0000
  15 N15          3.0038     2.1971     0.9404 N.ar         1    LIG   0.0000
  16 C16          2.4000     1.0000     1.0000 C.ar         1    LIG   0.0000
  17 N17          1.0000     1.0000     1.0000 N.pl3        1    LIG   0.0000
  18 C18          0.2650     2.2717     0.9417 C.3          1    LIG   0.0000
  19 C19          0.8094     3.1198    -0.1962 C.3          1    LIG   0.0000
  20 C20          0.4362     3.0166     2.2557 C.ar         1    LIG   0.0000
  21 C21          0.6178     4.3961     2.2410 C.ar         1    LIG   0.0000
  22 C22          0.7735     5.0719     3.4464 C.ar         1    LIG   0.0000
  23 C23          0.7474     4.3686     4.6467 C.ar         1    LIG   0.0000
  24 N24          0.9056     5.0539     5.8575 N.am         1    LIG   0.0000
  25 C25          0.8807     4.3663     7.0421 C.2          1    LIG   0.0000
  26 O26          1.2573     3.2276     7.0830 O.2          1    LIG   0.0000
  27 N27          0.4259     4.9785     8.1802 N.am         1    LIG   0.0000
  28 C28          0.3992     4.2420     9.4490 C.3          1    LIG   0.0000
  29 C29          0.6513     5.1266    10.6289 C.3          1    LIG   0.0000
  30 C30         -0.7423     4.6570    10.3294 C.3          1    LIG   0.0000
  31 C31          0.5649     2.9898     4.6612 C.ar         1    LIG   0.0000
  32 C32          0.4085     2.3140     3.4556 C.ar         1    LIG   0.0000
  33 C33          3.1369    -0.1861     1.0544 C.ar         1    LIG   0.0000
  34 C34          2.8370    -1.5769     1.1262 C.2          1    LIG   0.0000
  35 C35          1.4318    -2.1607     1.1556 C.3          1    LIG   0.0000
  36 H            5.7571     5.0327     2.1854 H            1    LIG   0.0000
  37 H           -0.7058     2.0888     0.7862 H            1    LIG   0.0000
  38 H            1.5970    -7.5247     1.4110 H            1    LIG   0.0000
  39 H            1.0215    -6.1944     2.1632 H            1    LIG   0.0000
  40 H            1.0239    -6.2733     0.5321 H            1    LIG   0.0000
  41 H            3.4026    -6.1679     2.1655 H            1    LIG   0.0000
  42 H            3.4050    -6.2469     0.5344 H            1    LIG   0.0000
  43 H            5.9331     3.5350     0.4021 H            1    LIG   0.0000
  44 H            4.4923     4.3026     0.3628 H            1    LIG   0.0000
  45 H            4.1536     4.6611     3.8422 H            1    LIG   0.0000
  46 H            3.4333     4.9728     2.4101 H            1    LIG   0.0000
  47 H            3.5261     3.4381     2.9605 H            1    LIG   0.0000
  48 H            6.2716     3.5327     3.8999 H            1    LIG   0.0000
  49 H            5.6440     2.3097     3.0183 H            1    LIG   0.0000
  50 H            6.9920     3.0768     2.5071 H            1    LIG   0.0000
  51 H            0.5000     0.1349     1.0397 H            1    LIG   0.0000
  52 H            0.3094     3.9849    -0.2359 H            1    LIG   0.0000
  53 H            1.7802     3.3027    -0.0407 H            1    LIG   0.0000
  54 H            0.6968     2.6298    -1.0606 H            1    LIG   0.0000
  55 H            0.6361     4.8952     1.3746 H            1    LIG   0.0000
  56 H            0.9042     6.0633     3.4505 H            1    LIG   0.0000
  57 H            1.0367     6.0453     5.8575 H            1    LIG   0.0000
  58 H            0.1120     5.9274     8.1462 H            1    LIG   0.0000
  59 H            0.7154     3.2936     9.4714 H            1    LIG   0.0000
  60 H            0.8958     6.0864    10.4909 H            1    LIG   0.0000
  61 H            1.1385     4.7698    11.4260 H            1    LIG   0.0000
  62 H           -1.1835     3.9866    10.9260 H            1    LIG   0.0000
  63 H           -1.4262     5.3032     9.9909 H            1    LIG   0.0000
  64 H            0.5464     2.4906     5.5275 H            1    LIG   0.0000
  65 H            0.2762     1.3228     3.4517 H            1    LIG   0.0000
  66 H            1.4861    -3.1579     1.2072 H            1    LIG   0.0000
  67 H            0.9425    -1.8117     1.9548 H            1    LIG   0.0000
  68 H            0.9434    -1.8961     0.3240 H            1    LIG   0.0000
@<TRIPOS>BOND
   1        1        2 1
   2        2        3 1
   3        3        4 1
   4        4        5 2
   5        4        6 1
   6        6        7 1
   7        7        8 1
   8        8        9 ar
   9        9       10 ar
  10       10       11 1
  11       11       12 1
  12       12       13 1
  13       12       14 1
  14       10       15 ar
  15       15       16 ar
  16       16       17 1
  17       17       18 1
  18       18       19 1
  19       18       20 1
  20       20       21 ar
  21       21       22 ar
  22       22       23 ar
  23       23       24 1
  24       24       25 am
  25       25       26 2
  26       25       27 am
  27       27       28 1
  28       28       29 1
  29       29       30 1
  30       30       28 1
  31       23       31 ar
  32       31       32 ar
  33       32       20 ar
  34       16       33 ar
  35       33        8 ar
  36       33       34 1
  37       34        6 2
  38       34       35 1
  39       12       36 1
  40       18       37 1
  41        1       38 1
  42        1       39 1
  43        1       40 1
  44        2       41 1
  45        2       42 1
  46       11       43 1
  47       11       44 1
  48       13       45 1
  49       13       46 1
  50       13       47 1
  51       14       48 1
  52       14       49 1
  53       14       50 1
  54       17       51 1
  55       19       52 1
  56       19       53 1
  57       19       54 1
  58       21       55 1
  59       22       56 1
  60       24       57 1
  61       27       58 1
  62       28       59 1
  63       29       60 1
  64       29       61 1
  65       30       62 1
  66       30       63 1
  67       31       64 1
  68       32       65 1
  69       35       66 1
  70       35       67 1
  71       35       68 1

@<TRIPOS>MOLECULE

  68   71
SMALL
USER_CHARGES
@<TRIPOS>ATOM
   1 C1           1.5187    -6.5289     1.3627 C.3          1    LIG   0.0000
   2 C2           2.9078    -5.9123     1.3349 C.3          1    LIG   0.0000
   3 O3           2.7967    -4.4983     1.2663 O.3          1    LIG   0.0000
   4 C4           3.9313    -3.8443     1.2364 C.2          1    LIG   0.0000
   5 O5           4.9704    -4.4438     1.2669 O.2          1    LIG   0.0000
   6 C6           3.9317    -2.3942     1.1662 C.2          1    LIG   0.0000
   7 S7           5.3318    -1.4225     1.1213 S.3          1    LIG   0.0000
   8 C8           4.4922     0.0539     1.0500 C.ar         1    LIG   0.0000
   9 N9           5.1195     1.2293     0.9918 N.ar         1    LIG   0.0000
  10 C10          4.3414     2.3115     0.9365 C.ar         1    LIG   0.0000
  11 C11          5.0558     3.6491     0.8682 C.3          1    LIG   0.0000
  12 N12          5.2864     4.1515     2.2303 N.4          1    LIG   1.0000
  13 C13          3.9967     4.3193     2.9156 C.3          1    LIG   0.0000
  14 C14          6.1147     3.1909     2.9733 C.3          1    LIG   0.0000
  15 N15          3.0038     2.1971     0.9404 N.ar         1    LIG   0.0000
  16 C16          2.4000     1.0000     1.0000 C.ar         1    LIG   0.0000
  17 N17          1.0000     1.0000     1.0000 N.pl3        1    LIG   0.0000
  18 C18          0.2650     2.2717     0.9417 C.3          1    LIG   0.0000
  19 C19          0.8094     3.1198    -0.1962 C.3          1    LIG   0.0000
  20 C20          0.4362     3.0166     2.2557 C.ar         1    LIG   0.0000
  21 C21          0.2018     2.3507     3.4547 C.ar         1    LIG   0.0000
  22 C22          0.3603     3.0375     4.6535 C.ar         1    LIG   0.0000
  23 C23          0.7479     4.3738     4.6437 C.ar         1    LIG   0.0000
  24 N24          0.9052     5.0609     5.8536 N.am         1    LIG   0.0000
  25 C25          1.2866     6.3767     5.8495 C.2          1    LIG   0.0000
  26 O26          0.9828     7.0867     4.9310 O.2          1    LIG   0.0000
  27 N27          2.0150     6.8820     6.8941 N.am         1    LIG   0.0000
  28 C28          2.4235     8.2913     6.8897 C.3          1    LIG   0.0000
  29 C29          2.4740     8.8762     8.2658 C.3          1    LIG   0.0000
  30 C30          3.7471     8.5071     7.5620 C.3          1    LIG   0.0000
  31 C31          0.9830     5.0391     3.4450 C.ar         1    LIG   0.0000
  32 C32          0.8251     4.3519     2.2461 C.ar         1    LIG   0.0000
  33 C33          3.1369    -0.1861     1.0544 C.ar         1    LIG   0.0000
  34 C34          2.8370    -1.5769     1.1262 C.2          1    LIG   0.0000
  35 C35          1.4318    -2.1607     1.1556 C.3          1    LIG   0.0000
  36 H            5.7571     5.0327     2.1854 H            1    LIG   0.0000
  37 H           -0.7058     2.0888     0.7862 H            1    LIG   0.0000
  38 H            1.5970    -7.5247     1.4110 H            1    LIG   0.0000
  39 H            1.0215    -6.1944     2.1632 H            1    LIG   0.0000
  40 H            1.0239    -6.2733     0.5321 H            1    LIG   0.0000
  41 H            3.4026    -6.1679     2.1655 H            1    LIG   0.0000
  42 H            3.4050    -6.2469     0.5344 H            1    LIG   0.0000
  43 H            5.9331     3.5350     0.4021 H            1    LIG   0.0000
  44 H            4.4923     4.3026     0.3628 H            1    LIG   0.0000
  45 H            4.1536     4.6611     3.8422 H            1    LIG   0.0000
  46 H            3.4333     4.9728     2.4101 H            1    LIG   0.0000
  47 H            3.5261     3.4381     2.9605 H            1    LIG   0.0000
  48 H            6.2716     3.5327     3.8999 H            1    LIG   0.0000
  49 H            5.6440     2.3097     3.0183 H            1    LIG   0.0000
  50 H            6.9920     3.0768     2.5071 H            1    LIG   0.0000
  51 H            0.5000     0.1349     1.0397 H            1    LIG   0.0000
  52 H            0.3094     3.9849    -0.2359 H            1    LIG   0.0000
  53 H            1.7802     3.3027    -0.0407 H            1    LIG   0.0000
  54 H            0.6968     2.6298    -1.0606 H            1    LIG   0.0000
  55 H           -0.0771     1.3904     3.4544 H            1    LIG   0.0000
  56 H            0.1958     2.5710     5.5226 H            1    LIG   0.0000
  57 H            0.7391     4.5912     6.7206 H            1    LIG   0.0000
  58 H            2.2681     6.2904     7.6595 H            1    LIG   0.0000
  59 H            2.1648     8.8739     6.1192 H            1    LIG   0.0000
  60 H            2.1620     8.3386     9.0492 H            1    LIG   0.0000
  61 H            2.2428     9.8385     8.4087 H            1    LIG   0.0000
  62 H            4.3637     9.2231     7.2348 H            1    LIG   0.0000
  63 H            4.2830     7.7232     7.8753 H            1    LIG   0.0000
  64 H            1.2621     5.9994     3.4452 H            1    LIG   0.0000
  65 H            0.9912     4.8180     1.3771 H            1    LIG   0.0000
  66 H            1.4861    -3.1579     1.2072 H            1    LIG   0.0000
  67 H            0.9425    -1.8117     1.9548 H            1    LIG   0.0000
  68 H            0.9434    -1.8961     0.3240 H            1    LIG   0.0000
@<TRIPOS>BOND
   1        1        2 1
   2        2        3 1
   3        3        4 1
   4        4        5 2
   5        4        6 1
   6        6        7 1
   7        7        8 1
   8        8        9 ar
   9        9       10 ar
  10       10       11 1
  11       11       12 1
  12       12       13 1
  13       12       14 1
  14       10       15 ar
  15       15       16 ar
  16       16       17 1
  17       17       18 1
  18       18       19 1
  19       18       20 1
  20       20       21 ar
  21       21       22 ar
  22       22       23 ar
  23       23       24 1
  24       24       25 am
  25       25       26 2
  26       25       27 am
  27       27       28 1
  28       28       29 1
  29       29       30 1
  30       30       28 1
  31       23       31 ar
  32       31       32 ar
  33       32       20 ar
  34       16       33 ar
  35       33        8 ar
  36       33       34 1
  37       34        6 2
  38       34       35 1
  39       12       36 1
  40       18       37 1
  41        1       38 1
  42        1       39 1
  43        1       40 1
  44        2       41 1
  45        2       42 1
  46       11       43 1
  47       11       44 1
  48       13       45 1
  49       13       46 1
  50       13       47 1
  51       14       48 1
  52       14       49 1
  53       14       50 1
  54       17       51 1
  55       19       52 1
  56       19       53 1
  57       19       54 1
  58       21       55 1
  59       22       56 1
  60       24       57 1
  61       27       58 1
  62       28       59 1
  63       29       60 1
  64       29       61 1
  65       30       62 1
  66       30       63 1
  67       31       64 1
  68       32       65 1
  69       35       66 1
  70       35       67 1
  71       35       68 1

@<TRIPOS>MOLECULE

  68   71
SMALL
USER_CHARGES
@<TRIPOS>ATOM
   1 C1           1.5187    -6.5289     1.3627 C.3          1    LIG   0.0000
   2 C2           2.9078    -5.9123     1.3349 C.3          1    LIG   0.0000
   3 O3           2.7967    -4.4983     1.2663 O.3          1    LIG   0.0000
   4 C4           3.9313    -3.8443     1.2364 C.2          1    LIG   0.0000
   5 O5           4.9704    -4.4438     1.2669 O.2          1    LIG   0.0000
   6 C6           3.9317    -2.3942     1.1662 C.2          1    LIG   0.0000
   7 S7           5.3318    -1.4225     1.1213 S.3          1    LIG   0.0000
   8 C8           4.4922     0.0539     1.0500 C.ar         1    LIG   0.0000
   9 N9           5.1195     1.2293     0.9918 N.ar         1    LIG   0.0000
  10 C10          4.3414     2.3115     0.9365 C.ar         1    LIG   0.0000
  11 C11          5.0558     3.6491     0.8682 C.3          1    LIG   0.0000
  12 N12          5.2864     4.1515     2.2303 N.4          1    LIG   1.0000
  13 C13          3.9967     4.3193     2.9156 C.3          1    LIG   0.0000
  14 C14          6.1147     3.1909     2.9733 C.3          1    LIG   0.0000
  15 N15          3.0038     2.1971     0.9404 N.ar         1    LIG   0.0000
  16 C16          2.4000     1.0000     1.0000 C.ar         1    LIG   0.0000
  17 N17          1.0000     1.0000     1.0000 N.pl3        1    LIG   0.0000
  18 C18          0.2650     2.2717     0.9417 C.3          1    LIG   0.0000
  19 C19         -1.2106     2.0165     1.2025 C.3          1    LIG   0.0000
  20 C20          0.4362     2.8932    -0.4350 C.ar         1    LIG   0.0000
  21 C21         -0.6501     3.5125    -1.0454 C.ar         1    LIG   0.0000
  22 C22         -0.4871     4.0795    -2.3048 C.ar         1    LIG   0.0000
  23 C23          0.7502     4.0223    -2.9387 C.ar         1    LIG   0.0000
  24 N24          0.9086     4.5940    -4.2071 N.am         1    LIG   0.0000
  25 C25          2.1247     4.5404    -4.8356 C.2          1    LIG   0.0000
  26 O26          2.8674     3.6210    -4.6280 O.2          1    LIG   0.0000
  27 N27          2.4930     5.5364    -5.7011 N.am         1    LIG   0.0000
  28 C28          3.7955     5.4790    -6.3743 C.3          1    LIG   0.0000
  29 C29          3.7580     6.0793    -7.7442 C.3          1    LIG   0.0000
  30 C30          4.3800     6.8403    -6.6101 C.3          1    LIG   0.0000
  31 C31          1.8362     3.4039    -2.3279 C.ar         1    LIG   0.0000
  32 C32          1.6733     2.8374    -1.0681 C.ar         1    LIG   0.0000
  33 C33          3.1369    -0.1861     1.0544 C.ar         1    LIG   0.0000
  34 C34          2.8370    -1.5769     1.1262 C.2          1    LIG   0.0000
  35 C35          1.4318    -2.1607     1.1556 C.3          1    LIG   0.0000
  36 H            5.7571     5.0327     2.1854 H            1    LIG   0.0000
  37 H            0.6232     2.8959     1.6360 H            1    LIG   0.0000
  38 H            1.5970    -7.5247     1.4110 H            1    LIG   0.0000
  39 H            1.0215    -6.1944     2.1632 H            1    LIG   0.0000
  40 H            1.0239    -6.2733     0.5321 H            1    LIG   0.0000
  41 H            3.4026    -6.1679     2.1655 H            1    LIG   0.0000
  42 H            3.4050    -6.2469     0.5344 H            1    LIG   0.0000
  43 H            5.9331     3.5350     0.4021 H            1    LIG   0.0000
  44 H            4.4923     4.3026     0.3628 H            1    LIG   0.0000
  45 H            4.1536     4.6611     3.8422 H            1    LIG   0.0000
  46 H            3.4333     4.9728     2.4101 H            1    LIG   0.0000
  47 H            3.5261     3.4381     2.9605 H            1    LIG   0.0000
  48 H            6.2716     3.5327     3.8999 H            1    LIG   0.0000
  49 H            5.6440     2.3097     3.0183 H            1    LIG   0.0000
  50 H            6.9920     3.0768     2.5071 H            1    LIG   0.0000
  51 H            0.5000     0.1349     1.0397 H            1    LIG   0.0000
  52 H           -1.7106     2.8817     1.1628 H            1    LIG   0.0000
  53 H           -1.5687     1.3924     0.5081 H            1    LIG   0.0000
  54 H           -1.3231     1.6077     2.1081 H            1    LIG   0.0000
  55 H           -1.5367     3.5495    -0.5844 H            1    LIG   0.0000
  56 H           -1.2592     4.5283    -2.7548 H            1    LIG   0.0000
  57 H            0.1340     5.0413    -4.6541 H            1    LIG   0.0000
  58 H            1.8740     6.3026    -5.8741 H            1    LIG   0.0000
  59 H            4.4065     4.7082    -6.1939 H            1    LIG   0.0000
  60 H            2.8884     6.3837    -8.1329 H            1    LIG   0.0000
  61 H            4.3346     5.7043    -8.4701 H            1    LIG   0.0000
  62 H            5.3708     6.9717    -6.5794 H            1    LIG   0.0000
  63 H            3.9247     7.6511    -6.2422 H            1    LIG   0.0000
  64 H            2.7229     3.3670    -2.7888 H            1    LIG   0.0000
  65 H            2.4458     2.3901    -0.6174 H            1    LIG   0.0000
  66 H            1.4861    -3.1579     1.2072 H            1    LIG   0.0000
  67 H            0.9425    -1.8117     1.9548 H            1    LIG   0.0000
  68 H            0.9434    -1.8961     0.3240 H            1    LIG   0.0000
@<TRIPOS>BOND
   1        1        2 1
   2        2        3 1
   3        3        4 1
   4        4        5 2
   5        4        6 1
   6        6        7 1
   7        7        8 1
   8        8        9 ar
   9        9       10 ar
  10       10       11 1
  11       11       12 1
  12       12       13 1
  13       12       14 1
  14       10       15 ar
  15       15       16 ar
  16       16       17 1
  17       17       18 1
  18       18       19 1
  19       18       20 1
  20       20       21 ar
  21       21       22 ar
  22       22       23 ar
  23       23       24 1
  24       24       25 am
  25       25       26 2
  26       25       27 am
  27       27       28 1
  28       28       29 1
  29       29       30 1
  30       30       28 1
  31       23       31 ar
  32       31       32 ar
  33       32       20 ar
  34       16       33 ar
  35       33        8 ar
  36       33       34 1
  37       34        6 2
  38       34       35 1
  39       12       36 1
  40       18       37 1
  41        1       38 1
  42        1       39 1
  43        1       40 1
  44        2       41 1
  45        2       42 1
  46       11       43 1
  47       11       44 1
  48       13       45 1
  49       13       46 1
  50       13       47 1
  51       14       48 1
  52       14       49 1
  53       14       50 1
  54       17       51 1
  55       19       52 1
  56       19       53 1
  57       19       54 1
  58       21       55 1
  59       22       56 1
  60       24       57 1
  61       27       58 1
  62       28       59 1
  63       29       60 1
  64       29       61 1
  65       30       62 1
  66       30       63 1
  67       31       64 1
  68       32       65 1
  69       35       66 1
  70       35       67 1
  71       35       68 1

@<TRIPOS>MOLECULE

  68   71
SMALL
USER_CHARGES
@<TRIPOS>ATOM
   1 C1           1.5187    -6.5289     1.3627 C.3          1    LIG   0.0000
   2 C2           2.9078    -5.9123     1.3349 C.3          1    LIG   0.0000
   3 O3           2.7967    -4.4983     1.2663 O.3          1    LIG   0.0000
   4 C4           3.9313    -3.8443     1.2364 C.2          1    LIG   0.0000
   5 O5           4.9704    -4.4438     1.2669 O.2          1    LIG   0.0000
   6 C6           3.9317    -2.3942     1.1662 C.2          1    LIG   0.0000
   7 S7           5.3318    -1.4225     1.1213 S.3          1    LIG   0.0000
   8 C8           4.4922     0.0539     1.0500 C.ar         1    LIG   0.0000
   9 N9           5.1195     1.2293     0.9918 N.ar         1    LIG   0.0000
  10 C10          4.3414     2.3115     0.9365 C.ar         1    LIG   0.0000
  11 C11          5.0558     3.6491     0.8682 C.3          1    LIG   0.0000
  12 N12          5.2864     4.1515     2.2303 N.4          1    LIG   1.0000
  13 C13          3.9967     4.3193     2.9156 C.3          1    LIG   0.0000
  14 C14          6.1147     3.1909     2.9733 C.3          1    LIG   0.0000
  15 N15          3.0038     2.1971     0.9404 N.ar         1    LIG   0.0000
  16 C16          2.4000     1.0000     1.0000 C.ar         1    LIG   0.0000
  17 N17          1.0000     1.0000     1.0000 N.pl3        1    LIG   0.0000
  18 C18          0.2650     2.2717     0.9417 C.3          1    LIG   0.0000
  19 C19         -1.2106     2.0165     1.2025 C.3          1    LIG   0.0000
  20 C20          0.4362     2.8932    -0.4350 C.ar         1    LIG   0.0000
  21 C21          1.7127     3.0208    -0.9737 C.ar         1    LIG   0.0000
  22 C22          1.8628     3.5899    -2.2337 C.ar         1    LIG   0.0000
  23 C23          0.7444     4.0240    -2.9387 C.ar         1    LIG   0.0000
  24 N24          0.9013     4.5971    -4.2066 N.am         1    LIG   0.0000
  25 C25         -0.1966     5.0262    -4.9049 C.2          1    LIG   0.0000
  26 O26         -1.1651     5.4210    -4.3167 O.2          1    LIG   0.0000
  27 N27         -0.1885     5.0044    -6.2747 N.am         1    LIG   0.0000
  28 C28         -1.3643     5.4639    -7.0226 C.3          1    LIG   0.0000
  29 C29         -0.9992     6.1079    -8.3227 C.3          1    LIG   0.0000
  30 C30         -1.5558     4.7143    -8.3078 C.3          1    LIG   0.0000
  31 C31         -0.5317     3.8955    -2.4004 C.ar         1    LIG   0.0000
  32 C32         -0.6817     3.3257    -1.1405 C.ar         1    LIG   0.0000
  33 C33          3.1369    -0.1861     1.0544 C.ar         1    LIG   0.0000
  34 C34          2.8370    -1.5769     1.1262 C.2          1    LIG   0.0000
  35 C35          1.4318    -2.1607     1.1556 C.3          1    LIG   0.0000
  36 H            5.7571     5.0327     2.1854 H            1    LIG   0.0000
  37 H            0.6232     2.8959     1.6360 H            1    LIG   0.0000
  38 H            1.5970    -7.5247     1.4110 H            1    LIG   0.0000
  39 H            1.0215    -6.1944     2.1632 H            1    LIG   0.0000
  40 H            1.0239    -6.2733     0.5321 H            1    LIG   0.0000
  41 H            3.4026    -6.1679     2.1655 H            1    LIG   0.0000
  42 H            3.4050    -6.2469     0.5344 H            1    LIG   0.0000
  43 H            5.9331     3.5350     0.4021 H            1    LIG   0.0000
  44 H            4.4923     4.3026     0.3628 H            1    LIG   0.0000
  45 H            4.1536     4.6611     3.8422 H            1    LIG   0.0000
  46 H            3.4333     4.9728     2.4101 H            1    LIG   0.0000
  47 H            3.5261     3.4381     2.9605 H            1    LIG   0.0000
  48 H            6.2716     3.5327     3.8999 H            1    LIG   0.0000
  49 H            5.6440     2.3097     3.0183 H            1    LIG   0.0000
  50 H            6.9920     3.0768     2.5071 H            1    LIG   0.0000
  51 H            0.5000     0.1349     1.0397 H            1    LIG   0.0000
  52 H           -1.7106     2.8817     1.1628 H            1    LIG   0.0000
  53 H           -1.5687     1.3924     0.5081 H            1    LIG   0.0000
  54 H           -1.3231     1.6077     2.1081 H            1    LIG   0.0000
  55 H            2.5122     2.7073    -0.4612 H            1    LIG   0.0000
  56 H            2.7744     3.6872    -2.6330 H            1    LIG   0.0000
  57 H            1.8146     4.6933    -4.6023 H            1    LIG   0.0000
  58 H            0.6186     4.6754    -6.7648 H            1    LIG   0.0000
  59 H           -2.1660     5.7909    -6.5222 H            1    LIG   0.0000
  60 H           -0.0379     6.2596    -8.5527 H            1    LIG   0.0000
  61 H           -1.5503     6.8624    -8.6789 H            1    LIG   0.0000
  62 H           -2.4781     4.5400    -8.6529 H            1    LIG   0.0000
  63 H           -0.9657     3.9372    -8.5267 H            1    LIG   0.0000
  64 H           -1.3312     4.2089    -2.9128 H            1    LIG   0.0000
  65 H           -1.5935     3.2270    -0.7418 H            1    LIG   0.0000
  66 H            1.4861    -3.1579     1.2072 H            1    LIG   0.0000
  67 H            0.9425    -1.8117     1.9548 H            1    LIG   0.0000
  68 H            0.9434    -1.8961     0.3240 H            1    LIG   0.0000
@<TRIPOS>BOND
   1        1        2 1
   2        2        3 1
   3        3        4 1
   4        4        5 2
   5        4        6 1
   6        6        7 1
   7        7        8 1
   8        8        9 ar
   9        9       10 ar
  10       10       11 1
  11       11       12 1
  12       12       13 1
  13       12       14 1
  14       10       15 ar
  15       15       16 ar
  16       16       17 1
  17       17       18 1
  18       18       19 1
  19       18       20 1
  20       20       21 ar
  21       21       22 ar
  22       22       23 ar
  23       23       24 1
  24       24       25 am
  25       25       26 2
  26       25       27 am
  27       27       28 1
  28       28       29 1
  29       29       30 1
  30       30       28 1
  31       23       31 ar
  32       31       32 ar
  33       32       20 ar
  34       16       33 ar
  35       33        8 ar
  36       33       34 1
  37       34        6 2
  38       34       35 1
  39       12       36 1
  40       18       37 1
  41        1       38 1
  42        1       39 1
  43        1       40 1
  44        2       41 1
  45        2       42 1
  46       11       43 1
  47       11       44 1
  48       13       45 1
  49       13       46 1
  50       13       47 1
  51       14       48 1
  52       14       49 1
  53       14       50 1
  54       17       51 1
  55       19       52 1
  56       19       53 1
  57       19       54 1
  58       21       55 1
  59       22       56 1
  60       24       57 1
  61       27       58 1
  62       28       59 1
  63       29       60 1
  64       29       61 1
  65       30       62 1
  66       30       63 1
  67       31       64 1
  68       32       65 1
  69       35       66 1
  70       35       67 1
  71       35       68 1

@<TRIPOS>MOLECULE

  68   71
SMALL
USER_CHARGES
@<TRIPOS>ATOM
   1 C1           1.5187    -6.5289     1.3627 C.3          1    LIG   0.0000
   2 C2           2.9078    -5.9123     1.3349 C.3          1    LIG   0.0000
   3 O3           2.7967    -4.4983     1.2663 O.3          1    LIG   0.0000
   4 C4           3.9313    -3.8443     1.2364 C.2          1    LIG   0.0000
   5 O5           4.9704    -4.4438     1.2669 O.2          1    LIG   0.0000
   6 C6           3.9317    -2.3942     1.1662 C.2          1    LIG   0.0000
   7 S7           5.3318    -1.4225     1.1213 S.3          1    LIG   0.0000
   8 C8           4.4922     0.0539     1.0500 C.ar         1    LIG   0.0000
   9 N9           5.1195     1.2293     0.9918 N.ar         1    LIG   0.0000
  10 C10          4.3414     2.3115     0.9365 C.ar         1    LIG   0.0000
  11 C11          5.0558     3.6491     0.8682 C.3          1    LIG   0.0000
  12 N12          5.2864     4.1515     2.2303 N.4          1    LIG   1.0000
  13 C13          3.9967     4.3193     2.9156 C.3          1    LIG   0.0000
  14 C14          6.1147     3.1909     2.9733 C.3          1    LIG   0.0000
  15 N15          3.0038     2.1971     0.9404 N.ar         1    LIG   0.0000
  16 C16          2.4000     1.0000     1.0000 C.ar         1    LIG   0.0000
  17 N17          1.0000     1.0000     1.0000 N.pl3        1    LIG   0.0000
  18 C18          0.2650     2.2717     0.9417 C.3          1    LIG   0.0000
  19 C19         -1.0631     2.0573     0.2342 C.3          1    LIG   0.0000
  20 C20          1.0865     3.2972     0.1773 C.ar         1    LIG   0.0000
  21 C21          1.6160     2.9607    -1.0647 C.ar         1    LIG   0.0000
  22 C22          2.3665     3.9033    -1.7593 C.ar         1    LIG   0.0000
  23 C23          2.5804     5.1639    -1.2104 C.ar         1    LIG   0.0000
  24 N24          3.3375     6.1089    -1.9136 N.am         1    LIG   0.0000
  25 C25          3.5511     7.3515    -1.3777 C.2          1    LIG   0.0000
  26 O26          3.5954     7.4918    -0.1868 O.2          1    LIG   0.0000
  27 N27          3.7141     8.4339    -2.2015 N.am         1    LIG   0.0000
  28 C28          3.9429     9.7648    -1.6276 C.3          1    LIG   0.0000
  29 C29          4.8268    10.6134    -2.4860 C.3          1    LIG   0.0000
  30 C30          3.3466    10.8597    -2.4619 C.3          1    LIG   0.0000
  31 C31          2.0502     5.5003     0.0307 C.ar         1    LIG   0.0000
  32 C32          1.2991     4.5578     0.7250 C.ar         1    LIG   0.0000
  33 C33          3.1369    -0.1861     1.0544 C.ar         1    LIG   0.0000
  34 C34          2.8370    -1.5769     1.1262 C.2          1    LIG   0.0000
  35 C35          1.4318    -2.1607     1.1556 C.3          1    LIG   0.0000
  36 H            5.7571     5.0327     2.1854 H            1    LIG   0.0000
  37 H            0.0983     2.6033     1.8703 H            1    LIG   0.0000
  38 H            1.5970    -7.5247     1.4110 H            1    LIG   0.0000
  39 H            1.0215    -6.1944     2.1632 H            1    LIG   0.0000
  40 H            1.0239    -6.2733     0.5321 H            1    LIG   0.0000
  41 H            3.4026    -6.1679     2.1655 H            1    LIG   0.0000
  42 H            3.4050    -6.2469     0.5344 H            1    LIG   0.0000
  43 H            5.9331     3.5350     0.4021 H            1    LIG   0.0000
  44 H            4.4923     4.3026     0.3628 H            1    LIG   0.0000
  45 H            4.1536     4.6611     3.8422 H            1    LIG   0.0000
  46 H            3.4333     4.9728     2.4101 H            1    LIG   0.0000
  47 H            3.5261     3.4381     2.9605 H            1    LIG   0.0000
  48 H            6.2716     3.5327     3.8999 H            1    LIG   0.0000
  49 H            5.6440     2.3097     3.0183 H            1    LIG   0.0000
  50 H            6.9920     3.0768     2.5071 H            1    LIG   0.0000
  51 H            0.5000     0.1349     1.0397 H            1    LIG   0.0000
  52 H           -1.5631     2.9224     0.1945 H            1    LIG   0.0000
  53 H           -0.8965     1.7257    -0.6944 H            1    LIG   0.0000
  54 H           -1.6036     1.3827     0.7371 H            1    LIG   0.0000
  55 H            1.4589     2.0527    -1.4530 H            1    LIG   0.0000
  56 H            2.7524     3.6751    -2.6531 H            1    LIG   0.0000
  57 H            3.7223     5.8767    -2.8069 H            1    LIG   0.0000
  58 H            3.6772     8.3170    -3.1940 H            1    LIG   0.0000
  59 H            3.9779     9.8702    -0.6338 H            1    LIG   0.0000
  60 H            5.2554    10.2236    -3.3010 H            1    LIG   0.0000
  61 H            5.4500    11.2720    -2.0642 H            1    LIG   0.0000
  62 H            2.9831    11.6816    -2.0234 H            1    LIG   0.0000
  63 H            2.7885    10.6332    -3.2601 H            1    LIG   0.0000
  64 H            2.2071     6.4084     0.4190 H            1    LIG   0.0000
  65 H            0.9118     4.7866     1.6182 H            1    LIG   0.0000
  66 H            1.4861    -3.1579     1.2072 H            1    LIG   0.0000
  67 H            0.9425    -1.8117     1.9548 H            1    LIG   0.0000
  68 H            0.9434    -1.8961     0.3240 H            1    LIG   0.0000
@<TRIPOS>BOND
   1        1        2 1
   2        2        3 1
   3        3        4 1
   4        4        5 2
   5        4        6 1
   6        6        7 1
   7        7        8 1
   8        8        9 ar
   9        9       10 ar
  10       10       11 1
  11       11       12 1
  12       12       13 1
  13       12       14 1
  14       10       15 ar
  15       15       16 ar
  16       16       17 1
  17       17       18 1
  18       18       19 1
  19       18       20 1
  20       20       21 ar
  21       21       22 ar
  22       22       23 ar
  23       23       24 1
  24       24       25 am
  25       25       26 2
  26       25       27 am
  27       27       28 1
  28       28       29 1
  29       29       30 1
  30       30       28 1
  31       23       31 ar
  32       31       32 ar
  33       32       20 ar
  34       16       33 ar
  35       33        8 ar
  36       33       34 1
  37       34        6 2
  38       34       35 1
  39       12       36 1
  40       18       37 1
  41        1       38 1
  42        1       39 1
  43        1       40 1
  44        2       41 1
  45        2       42 1
  46       11       43 1
  47       11       44 1
  48       13       45 1
  49       13       46 1
  50       13       47 1
  51       14       48 1
  52       14       49 1
  53       14       50 1
  54       17       51 1
  55       19       52 1
  56       19       53 1
  57       19       54 1
  58       21       55 1
  59       22       56 1
  60       24       57 1
  61       27       58 1
  62       28       59 1
  63       29       60 1
  64       29       61 1
  65       30       62 1
  66       30       63 1
  67       31       64 1
  68       32       65 1
  69       35       66 1
  70       35       67 1
  71       35       68 1

@<TRIPOS>MOLECULE

  68   71
SMALL
USER_CHARGES
@<TRIPOS>ATOM
   1 C1           1.5187    -6.5289     1.3627 C.3          1    LIG   0.0000
   2 C2           2.9078    -5.9123     1.3349 C.3          1    LIG   0.0000
   3 O3           2.7967    -4.4983     1.2663 O.3          1    LIG   0.0000
   4 C4           3.9313    -3.8443     1.2364 C.2          1    LIG   0.0000
   5 O5           4.9704    -4.4438     1.2669 O.2          1    LIG   0.0000
   6 C6           3.9317    -2.3942     1.1662 C.2          1    LIG   0.0000
   7 S7           5.3318    -1.4225     1.1213 S.3          1    LIG   0.0000
   8 C8           4.4922     0.0539     1.0500 C.ar         1    LIG   0.0000
   9 N9           5.1195     1.2293     0.9918 N.ar         1    LIG   0.0000
  10 C10          4.3414     2.3115     0.9365 C.ar         1    LIG   0.0000
  11 C11          5.0558     3.6491     0.8682 C.3          1    LIG   0.0000
  12 N12          5.2864     4.1515     2.2303 N.4          1    LIG   1.0000
  13 C13          3.9967     4.3193     2.9156 C.3          1    LIG   0.0000
  14 C14          6.1147     3.1909     2.9733 C.3          1    LIG   0.0000
  15 N15          3.0038     2.1971     0.9404 N.ar         1    LIG   0.0000
  16 C16          2.4000     1.0000     1.0000 C.ar         1    LIG   0.0000
  17 N17          1.0000     1.0000     1.0000 N.pl3        1    LIG   0.0000
  18 C18          0.2650     2.2717     0.9417 C.3          1    LIG   0.0000
  19 C19         -0.2038     2.6504     2.3371 C.3          1    LIG   0.0000
  20 C20         -0.9391     2.1195     0.0264 C.ar         1    LIG   0.0000
  21 C21         -1.7840     3.2059    -0.1783 C.ar         1    LIG   0.0000
  22 C22         -2.8838     3.0605    -1.0169 C.ar         1    LIG   0.0000
  23 C23         -3.1284     1.8397    -1.6382 C.ar         1    LIG   0.0000
  24 N24         -4.2376     1.6985    -2.4809 N.am         1    LIG   0.0000
  25 C25         -5.2033     0.7705    -2.1924 C.2          1    LIG   0.0000
  26 O26         -4.9118    -0.2377    -1.6105 O.2          1    LIG   0.0000
  27 N27         -6.5017     0.9935    -2.5683 N.am         1    LIG   0.0000
  28 C28         -7.6017     0.4370    -1.7725 C.3          1    LIG   0.0000
  29 C29         -7.6985     1.0606    -0.4160 C.3          1    LIG   0.0000
  30 C30         -8.6735     1.4477    -1.4892 C.3          1    LIG   0.0000
  31 C31         -2.2831     0.7541    -1.4341 C.ar         1    LIG   0.0000
  32 C32         -1.1828     0.8998    -0.5959 C.ar         1    LIG   0.0000
  33 C33          3.1369    -0.1861     1.0544 C.ar         1    LIG   0.0000
  34 C34          2.8370    -1.5769     1.1262 C.2          1    LIG   0.0000
  35 C35          1.4318    -2.1607     1.1556 C.3          1    LIG   0.0000
  36 H            5.7571     5.0327     2.1854 H            1    LIG   0.0000
  37 H            0.8656     2.9878     0.5860 H            1    LIG   0.0000
  38 H            1.5970    -7.5247     1.4110 H            1    LIG   0.0000
  39 H            1.0215    -6.1944     2.1632 H            1    LIG   0.0000
  40 H            1.0239    -6.2733     0.5321 H            1    LIG   0.0000
  41 H            3.4026    -6.1679     2.1655 H            1    LIG   0.0000
  42 H            3.4050    -6.2469     0.5344 H            1    LIG   0.0000
  43 H            5.9331     3.5350     0.4021 H            1    LIG   0.0000
  44 H            4.4923     4.3026     0.3628 H            1    LIG   0.0000
  45 H            4.1536     4.6611     3.8422 H            1    LIG   0.0000
  46 H            3.4333     4.9728     2.4101 H            1    LIG   0.0000
  47 H            3.5261     3.4381     2.9605 H            1    LIG   0.0000
  48 H            6.2716     3.5327     3.8999 H            1    LIG   0.0000
  49 H            5.6440     2.3097     3.0183 H            1    LIG   0.0000
  50 H            6.9920     3.0768     2.5071 H            1    LIG   0.0000
  51 H            0.5000     0.1349     1.0397 H            1    LIG   0.0000
  52 H           -0.7038     3.5155     2.2974 H            1    LIG   0.0000
  53 H           -0.8044     1.9343     2.6927 H            1    LIG   0.0000
  54 H            0.5883     2.7506     2.9391 H            1    LIG   0.0000
  55 H           -1.6027     4.0802     0.2720 H            1    LIG   0.0000
  56 H           -3.4989     3.8333    -1.1734 H            1    LIG   0.0000
  57 H           -4.3250     2.2750    -3.2933 H            1    LIG   0.0000
  58 H           -6.6998     1.5355    -3.3850 H            1    LIG   0.0000
  59 H           -7.8531    -0.5239    -1.8888 H            1    LIG   0.0000
  60 H           -7.0023     1.7121    -0.1146 H            1    LIG   0.0000
  61 H           -8.0046     0.5151     0.3642 H            1    LIG   0.0000
  62 H           -9.6289     1.1595    -1.4251 H            1    LIG   0.0000
  63 H           -8.6266     2.3565    -1.9039 H            1    LIG   0.0000
  64 H           -2.4642    -0.1202    -1.8844 H            1    LIG   0.0000
  65 H           -0.5668     0.1275    -0.4407 H            1    LIG   0.0000
  66 H            1.4861    -3.1579     1.2072 H            1    LIG   0.0000
  67 H            0.9425    -1.8117     1.9548 H            1    LIG   0.0000
  68 H            0.9434    -1.8961     0.3240 H            1    LIG   0.0000
@<TRIPOS>BOND
   1        1        2 1
   2        2        3 1
   3        3        4 1
   4        4        5 2
   5        4        6 1
   6        6        7 1
   7        7        8 1
   8        8        9 ar
   9        9       10 ar
  10       10       11 1
  11       11       12 1
  12       12       13 1
  13       12       14 1
  14       10       15 ar
  15       15       16 ar
  16       16       17 1
  17       17       18 1
  18       18       19 1
  19       18       20 1
  20       20       21 ar
  21       21       22 ar
  22       22       23 ar
  23       23       24 1
  24       24       25 am
  25       25       26 2
  26       25       27 am
  27       27       28 1
  28       28       29 1
  29       29       30 1
  30       30       28 1
  31       23       31 ar
  32       31       32 ar
  33       32       20 ar
  34       16       33 ar
  35       33        8 ar
  36       33       34 1
  37       34        6 2
  38       34       35 1
  39       12       36 1
  40       18       37 1
  41        1       38 1
  42        1       39 1
  43        1       40 1
  44        2       41 1
  45        2       42 1
  46       11       43 1
  47       11       44 1
  48       13       45 1
  49       13       46 1
  50       13       47 1
  51       14       48 1
  52       14       49 1
  53       14       50 1
  54       17       51 1
  55       19       52 1
  56       19       53 1
  57       19       54 1
  58       21       55 1
  59       22       56 1
  60       24       57 1
  61       27       58 1
  62       28       59 1
  63       29       60 1
  64       29       61 1
  65       30       62 1
  66       30       63 1
  67       31       64 1
  68       32       65 1
  69       35       66 1
  70       35       67 1
  71       35       68 1

@<TRIPOS>MOLECULE

  68   71
SMALL
USER_CHARGES
@<TRIPOS>ATOM
   1 C1           1.5187    -6.5289     1.3627 C.3          1    LIG   0.0000
   2 C2           2.9078    -5.9123     1.3349 C.3          1    LIG   0.0000
   3 O3           2.7967    -4.4983     1.2663 O.3          1    LIG   0.0000
   4 C4           3.9313    -3.8443     1.2364 C.2          1    LIG   0.0000
   5 O5           4.9704    -4.4438     1.2669 O.2          1    LIG   0.0000
   6 C6           3.9317    -2.3942     1.1662 C.2          1    LIG   0.0000
   7 S7           5.3318    -1.4225     1.1213 S.3          1    LIG   0.0000
   8 C8           4.4922     0.0539     1.0500 C.ar         1    LIG   0.0000
   9 N9           5.1195     1.2293     0.9918 N.ar         1    LIG   0.0000
  10 C10          4.3414     2.3115     0.9365 C.ar         1    LIG   0.0000
  11 C11          5.0558     3.6491     0.8682 C.3          1    LIG   0.0000
  12 N12          5.2864     4.1515     2.2303 N.4          1    LIG   1.0000
  13 C13          3.9967     4.3193     2.9156 C.3          1    LIG   0.0000
  14 C14          6.1147     3.1909     2.9733 C.3          1    LIG   0.0000
  15 N15          3.0038     2.1971     0.9404 N.ar         1    LIG   0.0000
  16 C16          2.4000     1.0000     1.0000 C.ar         1    LIG   0.0000
  17 N17          1.0000     1.0000     1.0000 N.pl3        1    LIG   0.0000
  18 C18          0.2650     2.2717     0.9417 C.3          1    LIG   0.0000
  19 C19         -0.2038     2.6504     2.3371 C.3          1    LIG   0.0000
  20 C20         -0.9391     2.1195     0.0264 C.ar         1    LIG   0.0000
  21 C21         -2.1978     1.9103     0.5816 C.ar         1    LIG   0.0000
  22 C22         -3.2955     1.7721    -0.2609 C.ar         1    LIG   0.0000
  23 C23         -3.1271     1.8427    -1.6403 C.ar         1    LIG   0.0000
  24 N24         -4.2357     1.7020    -2.4841 N.am         1    LIG   0.0000
  25 C25         -4.3541     2.4922    -3.5970 C.2          1    LIG   0.0000
  26 O26         -3.5079     3.3049    -3.8487 O.2          1    LIG   0.0000
  27 N27         -5.4387     2.3545    -4.4226 N.am         1    LIG   0.0000
  28 C28         -5.8084     3.4419    -5.3358 C.3          1    LIG   0.0000
  29 C29         -6.4045     2.9387    -6.6123 C.3          1    LIG   0.0000
  30 C30         -7.2899     3.5291    -5.5542 C.3          1    LIG   0.0000
  31 C31         -1.8690     2.0528    -2.1950 C.ar         1    LIG   0.0000
  32 C32         -0.7712     2.1917    -1.3523 C.ar         1    LIG   0.0000
  33 C33          3.1369    -0.1861     1.0544 C.ar         1    LIG   0.0000
  34 C34          2.8370    -1.5769     1.1262 C.2          1    LIG   0.0000
  35 C35          1.4318    -2.1607     1.1556 C.3          1    LIG   0.0000
  36 H            5.7571     5.0327     2.1854 H            1    LIG   0.0000
  37 H            0.8656     2.9878     0.5860 H            1    LIG   0.0000
  38 H            1.5970    -7.5247     1.4110 H            1    LIG   0.0000
  39 H            1.0215    -6.1944     2.1632 H            1    LIG   0.0000
  40 H            1.0239    -6.2733     0.5321 H            1    LIG   0.0000
  41 H            3.4026    -6.1679     2.1655 H            1    LIG   0.0000
  42 H            3.4050    -6.2469     0.5344 H            1    LIG   0.0000
  43 H            5.9331     3.5350     0.4021 H            1    LIG   0.0000
  44 H            4.4923     4.3026     0.3628 H            1    LIG   0.0000
  45 H            4.1536     4.6611     3.8422 H            1    LIG   0.0000
  46 H            3.4333     4.9728     2.4101 H            1    LIG   0.0000
  47 H            3.5261     3.4381     2.9605 H            1    LIG   0.0000
  48 H            6.2716     3.5327     3.8999 H            1    LIG   0.0000
  49 H            5.6440     2.3097     3.0183 H            1    LIG   0.0000
  50 H            6.9920     3.0768     2.5071 H            1    LIG   0.0000
  51 H            0.5000     0.1349     1.0397 H            1    LIG   0.0000
  52 H           -0.7038     3.5155     2.2974 H            1    LIG   0.0000
  53 H           -0.8044     1.9343     2.6927 H            1    LIG   0.0000
  54 H            0.5883     2.7506     2.9391 H            1    LIG   0.0000
  55 H           -2.3115     1.8600     1.5738 H            1    LIG   0.0000
  56 H           -4.2059     1.6219     0.1246 H            1    LIG   0.0000
  57 H           -4.9409     1.0248    -2.2744 H            1    LIG   0.0000
  58 H           -5.9785     1.5129    -4.4028 H            1    LIG   0.0000
  59 H           -5.2615     4.2791    -5.3472 H            1    LIG   0.0000
  60 H           -6.4335     1.9564    -6.7973 H            1    LIG   0.0000
  61 H           -6.2478     3.4343    -7.4666 H            1    LIG   0.0000
  62 H           -7.7225     4.4185    -5.7025 H            1    LIG   0.0000
  63 H           -7.9081     2.9405    -5.0332 H            1    LIG   0.0000
  64 H           -1.7551     2.1033    -3.1872 H            1    LIG   0.0000
  65 H            0.1390     2.3434    -1.7378 H            1    LIG   0.0000
  66 H            1.4861    -3.1579     1.2072 H            1    LIG   0.0000
  67 H            0.9425    -1.8117     1.9548 H            1    LIG   0.0000
  68 H            0.9434    -1.8961     0.3240 H            1    LIG   0.0000
@<TRIPOS>BOND
   1        1        2 1
   2        2        3 1
   3        3        4 1
   4        4        5 2
   5        4        6 1
   6        6        7 1
   7        7        8 1
   8        8        9 ar
   9        9       10 ar
  10       10       11 1
  11       11       12 1
  12       12       13 1
  13       12       14 1
  14       10       15 ar
  15       15       16 ar
  16       16       17 1
  17       17       18 1
  18       18       19 1
  19       18       20 1
  20       20       21 ar
  21       21       22 ar
  22       22       23 ar
  23       23       24 1
  24       24       25 am
  25       25       26 2
  26       25       27 am
  27       27       28 1
  28       28       29 1
  29       29       30 1
  30       30       28 1
  31       23       31 ar
  32       31       32 ar
  33       32       20 ar
  34       16       33 ar
  35       33        8 ar
  36       33       34 1
  37       34        6 2
  38       34       35 1
  39       12       36 1
  40       18       37 1
  41        1       38 1
  42        1       39 1
  43        1       40 1
  44        2       41 1
  45        2       42 1
  46       11       43 1
  47       11       44 1
  48       13       45 1
  49       13       46 1
  50       13       47 1
  51       14       48 1
  52       14       49 1
  53       14       50 1
  54       17       51 1
  55       19       52 1
  56       19       53 1
  57       19       54 1
  58       21       55 1
  59       22       56 1
  60       24       57 1
  61       27       58 1
  62       28       59 1
  63       29       60 1
  64       29       61 1
  65       30       62 1
  66       30       63 1
  67       31       64 1
  68       32       65 1
  69       35       66 1
  70       35       67 1
  71       35       68 1

@<TRIPOS>MOLECULE

  68   71
SMALL
USER_CHARGES
@<TRIPOS>ATOM
   1 C1           1.5187    -6.5289     1.3627 C.3          1    LIG   0.0000
   2 C2           2.9078    -5.9123     1.3349 C.3          1    LIG   0.0000
   3 O3           2.7967    -4.4983     1.2663 O.3          1    LIG   0.0000
   4 C4           3.9313    -3.8443     1.2364 C.2          1    LIG   0.0000
   5 O5           4.9704    -4.4438     1.2669 O.2          1    LIG   0.0000
   6 C6           3.9317    -2.3942     1.1662 C.2          1    LIG   0.0000
   7 S7           5.3318    -1.4225     1.1213 S.3          1    LIG   0.0000
   8 C8           4.4922     0.0539     1.0500 C.ar         1    LIG   0.0000
   9 N9           5.1195     1.2293     0.9918 N.ar         1    LIG   0.0000
  10 C10          4.3414     2.3115     0.9365 C.ar         1    LIG   0.0000
  11 C11          5.0558     3.6491     0.8682 C.3          1    LIG   0.0000
  12 N12          5.2864     4.1515     2.2303 N.4          1    LIG   1.0000
  13 C13          4.1061     3.8738     3.0614 C.3          1    LIG   0.0000
  14 C14          6.4607     3.4816     2.8075 C.3          1    LIG   0.0000
  15 N15          3.0038     2.1971     0.9404 N.ar         1    LIG   0.0000
  16 C16          2.4000     1.0000     1.0000 C.ar         1    LIG   0.0000
  17 N17          1.0000     1.0000     1.0000 N.pl3        1    LIG   0.0000
  18 C18          0.2650     2.2717     0.9417 C.3          1    LIG   0.0000
  19 C19         -1.0631     2.0573     0.2342 C.3          1    LIG   0.0000
  20 C20          1.0865     3.2972     0.1773 C.ar         1    LIG   0.0000
  21 C21          1.1236     4.6143     0.6244 C.ar         1    LIG   0.0000
  22 C22          1.8772     5.5477    -0.0790 C.ar         1    LIG   0.0000
  23 C23          2.5811     5.1600    -1.2149 C.ar         1    LIG   0.0000
  24 N24          3.3376     6.1040    -1.9200 N.am         1    LIG   0.0000
  25 C25          4.6877     5.9261    -2.0700 C.2          1    LIG   0.0000
  26 O26          5.1682     4.8353    -1.9312 O.2          1    LIG   0.0000
  27 N27          5.4892     6.9935    -2.3785 N.am         1    LIG   0.0000
  28 C28          6.8830     7.0209    -1.9208 C.3          1    LIG   0.0000
  29 C29          7.4023     8.4138    -1.7526 C.3          1    LIG   0.0000
  30 C30          7.0242     7.6050    -0.5463 C.3          1    LIG   0.0000
  31 C31          2.5446     3.8430    -1.6612 C.ar         1    LIG   0.0000
  32 C32          1.7914     2.9094    -0.9573 C.ar         1    LIG   0.0000
  33 C33          3.1369    -0.1861     1.0544 C.ar         1    LIG   0.0000
  34 C34          2.8370    -1.5769     1.1262 C.2          1    LIG   0.0000
  35 C35          1.4318    -2.1607     1.1556 C.3          1    LIG   0.0000
  36 H            5.4473     5.1380     2.1989 H            1    LIG   0.0000
  37 H            0.0983     2.6033     1.8703 H            1    LIG   0.0000
  38 H            1.5970    -7.5247     1.4110 H            1    LIG   0.0000
  39 H            1.0215    -6.1944     2.1632 H            1    LIG   0.0000
  40 H            1.0239    -6.2733     0.5321 H            1    LIG   0.0000
  41 H            3.4026    -6.1679     2.1655 H            1    LIG   0.0000
  42 H            3.4050    -6.2469     0.5344 H            1    LIG   0.0000
  43 H            5.9331     3.5350     0.4021 H            1    LIG   0.0000
  44 H            4.4923     4.3026     0.3628 H            1    LIG   0.0000
  45 H            4.2629     4.2156     3.9880 H            1    LIG   0.0000
  46 H            3.3072     4.3296     2.6687 H            1    LIG   0.0000
  47 H            3.9451     2.8873     3.0928 H            1    LIG   0.0000
  48 H            6.6175     3.8234     3.7341 H            1    LIG   0.0000
  49 H            6.2997     2.4951     2.8389 H            1    LIG   0.0000
  50 H            7.2636     3.6705     2.2422 H            1    LIG   0.0000
  51 H            0.5000     0.1349     1.0397 H            1    LIG   0.0000
  52 H           -1.5631     2.9224     0.1945 H            1    LIG   0.0000
  53 H           -0.8965     1.7257    -0.6944 H            1    LIG   0.0000
  54 H           -1.6036     1.3827     0.7371 H            1    LIG   0.0000
  55 H            0.6149     4.8862     1.4412 H            1    LIG   0.0000
  56 H            1.9133     6.4976     0.2315 H            1    LIG   0.0000
  57 H            2.8924     6.9081    -2.3140 H            1    LIG   0.0000
  58 H            5.1243     7.7540    -2.9157 H            1    LIG   0.0000
  59 H            7.5084     6.2969    -2.2119 H            1    LIG   0.0000
  60 H            6.8399     9.1935    -2.0278 H            1    LIG   0.0000
  61 H            8.3642     8.6145    -1.9383 H            1    LIG   0.0000
  62 H            7.7338     7.2656     0.0712 H            1    LIG   0.0000
  63 H            6.2095     7.8447    -0.0183 H            1    LIG   0.0000
  64 H            3.0535     3.5709    -2.4779 H            1    LIG   0.0000
  65 H            1.7567     1.9592    -1.2669 H            1    LIG   0.0000
  66 H            1.4861    -3.1579     1.2072 H            1    LIG   0.0000
  67 H            0.9425    -1.8117     1.9548 H            1    LIG   0.0000
  68 H            0.9434    -1.8961     0.3240 H            1    LIG   0.0000
@<TRIPOS>BOND
   1        1        2 1
   2        2        3 1
   3        3        4 1
   4        4        5 2
   5        4        6 1
   6        6        7 1
   7        7        8 1
   8        8        9 ar
   9        9       10 ar
  10       10       11 1
  11       11       12 1
  12       12       13 1
  13       12       14 1
  14       10       15 ar
  15       15       16 ar
  16       16       17 1
  17       17       18 1
  18       18       19 1
  19       18       20 1
  20       20       21 ar
  21       21       22 ar
  22       22       23 ar
  23       23       24 1
  24       24       25 am
  25       25       26 2
  26       25       27 am
  27       27       28 1
  28       28       29 1
  29       29       30 1
  30       30       28 1
  31       23       31 ar
  32       31       32 ar
  33       32       20 ar
  34       16       33 ar
  35       33        8 ar
  36       33       34 1
  37       34        6 2
  38       34       35 1
  39       12       36 1
  40       18       37 1
  41        1       38 1
  42        1       39 1
  43        1       40 1
  44        2       41 1
  45        2       42 1
  46       11       43 1
  47       11       44 1
  48       13       45 1
  49       13       46 1
  50       13       47 1
  51       14       48 1
  52       14       49 1
  53       14       50 1
  54       17       51 1
  55       19       52 1
  56       19       53 1
  57       19       54 1
  58       21       55 1
  59       22       56 1
  60       24       57 1
  61       27       58 1
  62       28       59 1
  63       29       60 1
  64       29       61 1
  65       30       62 1
  66       30       63 1
  67       31       64 1
  68       32       65 1
  69       35       66 1
  70       35       67 1
  71       35       68 1

@<TRIPOS>MOLECULE

  68   71
SMALL
USER_CHARGES
@<TRIPOS>ATOM
   1 C1           1.5187    -6.5289     1.3627 C.3          1    LIG   0.0000
   2 C2           2.9078    -5.9123     1.3349 C.3          1    LIG   0.0000
   3 O3           2.7967    -4.4983     1.2663 O.3          1    LIG   0.0000
   4 C4           3.9313    -3.8443     1.2364 C.2          1    LIG   0.0000
   5 O5           4.9704    -4.4438     1.2669 O.2          1    LIG   0.0000
   6 C6           3.9317    -2.3942     1.1662 C.2          1    LIG   0.0000
   7 S7           5.3318    -1.4225     1.1213 S.3          1    LIG   0.0000
   8 C8           4.4922     0.0539     1.0500 C.ar         1    LIG   0.0000
   9 N9           5.1195     1.2293     0.9918 N.ar         1    LIG   0.0000
  10 C10          4.3414     2.3115     0.9365 C.ar         1    LIG   0.0000
  11 C11          5.0558     3.6491     0.8682 C.3          1    LIG   0.0000
  12 N12          5.2864     4.1515     2.2303 N.4          1    LIG   1.0000
  13 C13          4.7482     3.1912     3.2045 C.3          1    LIG   0.0000
  14 C14          6.7298     4.3187     2.4532 C.3          1    LIG   0.0000
  15 N15          3.0038     2.1971     0.9404 N.ar         1    LIG   0.0000
  16 C16          2.4000     1.0000     1.0000 C.ar         1    LIG   0.0000
  17 N17          1.0000     1.0000     1.0000 N.pl3        1    LIG   0.0000
  18 C18          0.2650     2.2717     0.9417 C.3          1    LIG   0.0000
  19 C19          0.0117     2.6444    -0.5100 C.3          1    LIG   0.0000
  20 C20          1.0865     3.3629     1.6090 C.ar         1    LIG   0.0000
  21 C21          1.8210     4.2440     0.8214 C.ar         1    LIG   0.0000
  22 C22          2.5704     5.2403     1.4378 C.ar         1    LIG   0.0000
  23 C23          2.5799     5.3460     2.8252 C.ar         1    LIG   0.0000
  24 N24          3.3368     6.3504     3.4407 N.am         1    LIG   0.0000
  25 C25          3.3496     6.4588     4.8063 C.2          1    LIG   0.0000
  26 O26          3.2064     5.4811     5.4872 O.2          1    LIG   0.0000
  27 N27          3.5259     7.6835     5.3946 N.am         1    LIG   0.0000
  28 C28          3.9745     7.7698     6.7890 C.3          1    LIG   0.0000
  29 C29          5.4654     7.7494     6.9121 C.3          1    LIG   0.0000
  30 C30          4.7183     9.0408     7.0747 C.3          1    LIG   0.0000
  31 C31          1.8448     4.4656     3.6122 C.ar         1    LIG   0.0000
  32 C32          1.0948     3.4696     2.9957 C.ar         1    LIG   0.0000
  33 C33          3.1369    -0.1861     1.0544 C.ar         1    LIG   0.0000
  34 C34          2.8370    -1.5769     1.1262 C.2          1    LIG   0.0000
  35 C35          1.4318    -2.1607     1.1556 C.3          1    LIG   0.0000
  36 H            4.8275     5.0329     2.3426 H            1    LIG   0.0000
  37 H           -0.6088     2.1739     1.4180 H            1    LIG   0.0000
  38 H            1.5970    -7.5247     1.4110 H            1    LIG   0.0000
  39 H            1.0215    -6.1944     2.1632 H            1    LIG   0.0000
  40 H            1.0239    -6.2733     0.5321 H            1    LIG   0.0000
  41 H            3.4026    -6.1679     2.1655 H            1    LIG   0.0000
  42 H            3.4050    -6.2469     0.5344 H            1    LIG   0.0000
  43 H            5.9331     3.5350     0.4021 H            1    LIG   0.0000
  44 H            4.4923     4.3026     0.3628 H            1    LIG   0.0000
  45 H            4.9050     3.5330     4.1311 H            1    LIG   0.0000
  46 H            3.7663     3.0774     3.0529 H            1    LIG   0.0000
  47 H            5.2071     2.3098     3.0922 H            1    LIG   0.0000
  48 H            6.8866     4.6605     3.3797 H            1    LIG   0.0000
  49 H            7.1887     3.4374     2.3408 H            1    LIG   0.0000
  50 H            7.0959     4.9720     1.7905 H            1    LIG   0.0000
  51 H            0.5000     0.1349     1.0397 H            1    LIG   0.0000
  52 H           -0.4883     3.5095    -0.5497 H            1    LIG   0.0000
  53 H            0.8854     2.7422    -0.9864 H            1    LIG   0.0000
  54 H           -0.5288     1.9266    -0.9490 H            1    LIG   0.0000
  55 H            1.8101     4.1619    -0.1751 H            1    LIG   0.0000
  56 H            3.1024     5.8807     0.8839 H            1    LIG   0.0000
  57 H            3.8681     6.9885     2.8834 H            1    LIG   0.0000
  58 H            3.3487     8.5185     4.8737 H            1    LIG   0.0000
  59 H            3.4179     7.3556     7.5091 H            1    LIG   0.0000
  60 H            6.0318     7.5983     6.1020 H            1    LIG   0.0000
  61 H            5.8955     7.3176     7.7049 H            1    LIG   0.0000
  62 H            4.6495     9.4692     7.9757 H            1    LIG   0.0000
  63 H            4.7858     9.7498     6.3728 H            1    LIG   0.0000
  64 H            1.8555     4.5477     4.6087 H            1    LIG   0.0000
  65 H            0.5615     2.8302     3.5495 H            1    LIG   0.0000
  66 H            1.4861    -3.1579     1.2072 H            1    LIG   0.0000
  67 H            0.9425    -1.8117     1.9548 H            1    LIG   0.0000
  68 H            0.9434    -1.8961     0.3240 H            1    LIG   0.0000
@<TRIPOS>BOND
   1        1        2 1
   2        2        3 1
   3        3        4 1
   4        4        5 2
   5        4        6 1
   6        6        7 1
   7        7        8 1
   8        8        9 ar
   9        9       10 ar
  10       10       11 1
  11       11       12 1
  12       12       13 1
  13       12       14 1
  14       10       15 ar
  15       15       16 ar
  16       16       17 1
  17       17       18 1
  18       18       19 1
  19       18       20 1
  20       20       21 ar
  21       21       22 ar
  22       22       23 ar
  23       23       24 1
  24       24       25 am
  25       25       26 2
  26       25       27 am
  27       27       28 1
  28       28       29 1
  29       29       30 1
  30       30       28 1
  31       23       31 ar
  32       31       32 ar
  33       32       20 ar
  34       16       33 ar
  35       33        8 ar
  36       33       34 1
  37       34        6 2
  38       34       35 1
  39       12       36 1
  40       18       37 1
  41        1       38 1
  42        1       39 1
  43        1       40 1
  44        2       41 1
  45        2       42 1
  46       11       43 1
  47       11       44 1
  48       13       45 1
  49       13       46 1
  50       13       47 1
  51       14       48 1
  52       14       49 1
  53       14       50 1
  54       17       51 1
  55       19       52 1
  56       19       53 1
  57       19       54 1
  58       21       55 1
  59       22       56 1
  60       24       57 1
  61       27       58 1
  62       28       59 1
  63       29       60 1
  64       29       61 1
  65       30       62 1
  66       30       63 1
  67       31       64 1
  68       32       65 1
  69       35       66 1
  70       35       67 1
  71       35       68 1

@<TRIPOS>MOLECULE

  68   71
SMALL
USER_CHARGES
@<TRIPOS>ATOM
   1 C1           1.5187    -6.5289     1.3627 C.3          1    LIG   0.0000
   2 C2           2.9078    -5.9123     1.3349 C.3          1    LIG   0.0000
   3 O3           2.7967    -4.4983     1.2663 O.3          1    LIG   0.0000
   4 C4           3.9313    -3.8443     1.2364 C.2          1    LIG   0.0000
   5 O5           4.9704    -4.4438     1.2669 O.2          1    LIG   0.0000
   6 C6           3.9317    -2.3942     1.1662 C.2          1    LIG   0.0000
   7 S7           5.3318    -1.4225     1.1213 S.3          1    LIG   0.0000
   8 C8           4.4922     0.0539     1.0500 C.ar         1    LIG   0.0000
   9 N9           5.1195     1.2293     0.9918 N.ar         1    LIG   0.0000
  10 C10          4.3414     2.3115     0.9365 C.ar         1    LIG   0.0000
  11 C11          5.0558     3.6491     0.8682 C.3          1    LIG   0.0000
  12 N12          5.2864     4.1515     2.2303 N.4          1    LIG   1.0000
  13 C13          4.7482     3.1912     3.2045 C.3          1    LIG   0.0000
  14 C14          6.7298     4.3187     2.4532 C.3          1    LIG   0.0000
  15 N15          3.0038     2.1971     0.9404 N.ar         1    LIG   0.0000
  16 C16          2.4000     1.0000     1.0000 C.ar         1    LIG   0.0000
  17 N17          1.0000     1.0000     1.0000 N.pl3        1    LIG   0.0000
  18 C18          0.2650     2.2717     0.9417 C.3          1    LIG   0.0000
  19 C19         -1.2106     2.0165     1.2025 C.3          1    LIG   0.0000
  20 C20          0.4362     2.8932    -0.4350 C.ar         1    LIG   0.0000
  21 C21         -0.5781     2.7565    -1.3777 C.ar         1    LIG   0.0000
  22 C22         -0.4157     3.3276    -2.6353 C.ar         1    LIG   0.0000
  23 C23          0.7502     4.0242    -2.9379 C.ar         1    LIG   0.0000
  24 N24          0.9090     4.5964    -4.2059 N.am         1    LIG   0.0000
  25 C25          1.0893     5.9489    -4.3294 C.2          1    LIG   0.0000
  26 O26          1.6332     6.5640    -3.4543 O.2          1    LIG   0.0000
  27 N27          0.6488     6.5990    -5.4519 N.am         1    LIG   0.0000
  28 C28          0.2224     8.0005    -5.3682 C.3          1    LIG   0.0000
  29 C29         -1.0829     8.2432    -6.0579 C.3          1    LIG   0.0000
  30 C30         -1.0295     8.1721    -4.5598 C.3          1    LIG   0.0000
  31 C31          1.7636     4.1614    -1.9950 C.ar         1    LIG   0.0000
  32 C32          1.6009     3.5908    -0.7370 C.ar         1    LIG   0.0000
  33 C33          3.1369    -0.1861     1.0544 C.ar         1    LIG   0.0000
  34 C34          2.8370    -1.5769     1.1262 C.2          1    LIG   0.0000
  35 C35          1.4318    -2.1607     1.1556 C.3          1    LIG   0.0000
  36 H            4.8275     5.0329     2.3426 H            1    LIG   0.0000
  37 H            0.6232     2.8959     1.6360 H            1    LIG   0.0000
  38 H            1.5970    -7.5247     1.4110 H            1    LIG   0.0000
  39 H            1.0215    -6.1944     2.1632 H            1    LIG   0.0000
  40 H            1.0239    -6.2733     0.5321 H            1    LIG   0.0000
  41 H            3.4026    -6.1679     2.1655 H            1    LIG   0.0000
  42 H            3.4050    -6.2469     0.5344 H            1    LIG   0.0000
  43 H            5.9331     3.5350     0.4021 H            1    LIG   0.0000
  44 H            4.4923     4.3026     0.3628 H            1    LIG   0.0000
  45 H            4.9050     3.5330     4.1311 H            1    LIG   0.0000
  46 H            3.7663     3.0774     3.0529 H            1    LIG   0.0000
  47 H            5.2071     2.3098     3.0922 H            1    LIG   0.0000
  48 H            6.8866     4.6605     3.3797 H            1    LIG   0.0000
  49 H            7.1887     3.4374     2.3408 H            1    LIG   0.0000
  50 H            7.0959     4.9720     1.7905 H            1    LIG   0.0000
  51 H            0.5000     0.1349     1.0397 H            1    LIG   0.0000
  52 H           -1.7106     2.8817     1.1628 H            1    LIG   0.0000
  53 H           -1.5687     1.3924     0.5081 H            1    LIG   0.0000
  54 H           -1.3231     1.6077     2.1081 H            1    LIG   0.0000
  55 H           -1.4132     2.2541    -1.1538 H            1    LIG   0.0000
  56 H           -1.1369     3.2376    -3.3222 H            1    LIG   0.0000
  57 H            0.8907     4.0179    -5.0214 H            1    LIG   0.0000
  58 H            0.6177     6.1184    -6.3283 H            1    LIG   0.0000
  59 H            0.9137     8.7231    -5.3599 H            1    LIG   0.0000
  60 H           -1.5176     7.5080    -6.5780 H            1    LIG   0.0000
  61 H           -1.2537     9.1181    -6.5110 H            1    LIG   0.0000
  62 H           -1.1636     8.9995    -4.0144 H            1    LIG   0.0000
  63 H           -1.4276     7.3894    -4.0814 H            1    LIG   0.0000
  64 H            2.5987     4.6640    -2.2187 H            1    LIG   0.0000
  65 H            2.3214     3.6822    -0.0496 H            1    LIG   0.0000
  66 H            1.4861    -3.1579     1.2072 H            1    LIG   0.0000
  67 H            0.9425    -1.8117     1.9548 H            1    LIG   0.0000
  68 H            0.9434    -1.8961     0.3240 H            1    LIG   0.0000
@<TRIPOS>BOND
   1        1        2 1
   2        2        3 1
   3        3        4 1
   4        4        5 2
   5        4        6 1
   6        6        7 1
   7        7        8 1
   8        8        9 ar
   9        9       10 ar
  10       10       11 1
  11       11       12 1
  12       12       13 1
  13       12       14 1
  14       10       15 ar
  15       15       16 ar
  16       16       17 1
  17       17       18 1
  18       18       19 1
  19       18       20 1
  20       20       21 ar
  21       21       22 ar
  22       22       23 ar
  23       23       24 1
  24       24       25 am
  25       25       26 2
  26       25       27 am
  27       27       28 1
  28       28       29 1
  29       29       30 1
  30       30       28 1
  31       23       31 ar
  32       31       32 ar
  33       32       20 ar
  34       16       33 ar
  35       33        8 ar
  36       33       34 1
  37       34        6 2
  38       34       35 1
  39       12       36 1
  40       18       37 1
  41        1       38 1
  42        1       39 1
  43        1       40 1
  44        2       41 1
  45        2       42 1
  46       11       43 1
  47       11       44 1
  48       13       45 1
  49       13       46 1
  50       13       47 1
  51       14       48 1
  52       14       49 1
  53       14       50 1
  54       17       51 1
  55       19       52 1
  56       19       53 1
  57       19       54 1
  58       21       55 1
  59       22       56 1
  60       24       57 1
  61       27       58 1
  62       28       59 1
  63       29       60 1
  64       29       61 1
  65       30       62 1
  66       30       63 1
  67       31       64 1
  68       32       65 1
  69       35       66 1
  70       35       67 1
  71       35       68 1

@<TRIPOS>MOLECULE

  68   71
SMALL
USER_CHARGES
@<TRIPOS>ATOM
   1 C1           1.5187    -6.5289     1.3627 C.3          1    LIG   0.0000
   2 C2           2.9078    -5.9123     1.3349 C.3          1    LIG   0.0000
   3 O3           2.7967    -4.4983     1.2663 O.3          1    LIG   0.0000
   4 C4           3.9313    -3.8443     1.2364 C.2          1    LIG   0.0000
   5 O5           4.9704    -4.4438     1.2669 O.2          1    LIG   0.0000
   6 C6           3.9317    -2.3942     1.1662 C.2          1    LIG   0.0000
   7 S7           5.3318    -1.4225     1.1213 S.3          1    LIG   0.0000
   8 C8           4.4922     0.0539     1.0500 C.ar         1    LIG   0.0000
   9 N9           5.1195     1.2293     0.9918 N.ar         1    LIG   0.0000
  10 C10          4.3414     2.3115     0.9365 C.ar         1    LIG   0.0000
  11 C11          5.0558     3.6491     0.8682 C.3          1    LIG   0.0000
  12 N12          5.2864     4.1515     2.2303 N.4          1    LIG   1.0000
  13 C13          4.7482     3.1912     3.2045 C.3          1    LIG   0.0000
  14 C14          6.7298     4.3187     2.4532 C.3          1    LIG   0.0000
  15 N15          3.0038     2.1971     0.9404 N.ar         1    LIG   0.0000
  16 C16          2.4000     1.0000     1.0000 C.ar         1    LIG   0.0000
  17 N17          1.0000     1.0000     1.0000 N.pl3        1    LIG   0.0000
  18 C18          0.2650     2.2717     0.9417 C.3          1    LIG   0.0000
  19 C19         -0.7861     2.3003     2.0393 C.3          1    LIG   0.0000
  20 C20         -0.4129     2.4035    -0.4126 C.ar         1    LIG   0.0000
  21 C21         -1.6976     2.9328    -0.4854 C.ar         1    LIG   0.0000
  22 C22         -2.3123     3.0511    -1.7272 C.ar         1    LIG   0.0000
  23 C23         -1.6433     2.6418    -2.8766 C.ar         1    LIG   0.0000
  24 N24         -2.2672     2.7623    -4.1243 N.am         1    LIG   0.0000
  25 C25         -1.6128     2.3608    -5.2590 C.2          1    LIG   0.0000
  26 O26         -0.4155     2.4201    -5.3139 O.2          1    LIG   0.0000
  27 N27         -2.3253     1.8917    -6.3310 N.am         1    LIG   0.0000
  28 C28         -1.6625     1.0687    -7.3490 C.3          1    LIG   0.0000
  29 C29         -1.2380    -0.2644    -6.8190 C.3          1    LIG   0.0000
  30 C30         -2.4508    -0.1592    -7.6967 C.3          1    LIG   0.0000
  31 C31         -0.3586     2.1136    -2.8036 C.ar         1    LIG   0.0000
  32 C32          0.2564     1.9959    -1.5616 C.ar         1    LIG   0.0000
  33 C33          3.1369    -0.1861     1.0544 C.ar         1    LIG   0.0000
  34 C34          2.8370    -1.5769     1.1262 C.2          1    LIG   0.0000
  35 C35          1.4318    -2.1607     1.1556 C.3          1    LIG   0.0000
  36 H            4.8275     5.0329     2.3426 H            1    LIG   0.0000
  37 H            0.9024     3.0313     1.0707 H            1    LIG   0.0000
  38 H            1.5970    -7.5247     1.4110 H            1    LIG   0.0000
  39 H            1.0215    -6.1944     2.1632 H            1    LIG   0.0000
  40 H            1.0239    -6.2733     0.5321 H            1    LIG   0.0000
  41 H            3.4026    -6.1679     2.1655 H            1    LIG   0.0000
  42 H            3.4050    -6.2469     0.5344 H            1    LIG   0.0000
  43 H            5.9331     3.5350     0.4021 H            1    LIG   0.0000
  44 H            4.4923     4.3026     0.3628 H            1    LIG   0.0000
  45 H            4.9050     3.5330     4.1311 H            1    LIG   0.0000
  46 H            3.7663     3.0774     3.0529 H            1    LIG   0.0000
  47 H            5.2071     2.3098     3.0922 H            1    LIG   0.0000
  48 H            6.8866     4.6605     3.3797 H            1    LIG   0.0000
  49 H            7.1887     3.4374     2.3408 H            1    LIG   0.0000
  50 H            7.0959     4.9720     1.7905 H            1    LIG   0.0000
  51 H            0.5000     0.1349     1.0397 H            1    LIG   0.0000
  52 H           -1.2861     3.1654     1.9996 H            1    LIG   0.0000
  53 H           -1.4235     1.5406     1.9103 H            1    LIG   0.0000
  54 H           -0.3402     2.2135     2.9302 H            1    LIG   0.0000
  55 H           -2.1729     3.2244     0.3447 H            1    LIG   0.0000
  56 H           -3.2352     3.4303    -1.7942 H            1    LIG   0.0000
  57 H           -3.1904     3.1414    -4.1872 H            1    LIG   0.0000
  58 H           -3.2971     2.1101    -6.4196 H            1    LIG   0.0000
  59 H           -1.1113     1.5131    -8.0552 H            1    LIG   0.0000
  60 H           -1.3415    -0.4715    -5.8462 H            1    LIG   0.0000
  61 H           -0.4064    -0.6983    -7.1656 H            1    LIG   0.0000
  62 H           -2.4274    -0.5219    -8.6283 H            1    LIG   0.0000
  63 H           -3.3625    -0.2951    -7.3089 H            1    LIG   0.0000
  64 H            0.1169     1.8221    -3.6336 H            1    LIG   0.0000
  65 H            1.1800     1.6182    -1.4948 H            1    LIG   0.0000
  66 H            1.4861    -3.1579     1.2072 H            1    LIG   0.0000
  67 H            0.9425    -1.8117     1.9548 H            1    LIG   0.0000
  68 H            0.9434    -1.8961     0.3240 H            1    LIG   0.0000
@<TRIPOS>BOND
   1        1        2 1
   2        2        3 1
   3        3        4 1
   4        4        5 2
   5        4        6 1
   6        6        7 1
   7        7        8 1
   8        8        9 ar
   9        9       10 ar
  10       10       11 1
  11       11       12 1
  12       12       13 1
  13       12       14 1
  14       10       15 ar
  15       15       16 ar
  16       16       17 1
  17       17       18 1
  18       18       19 1
  19       18       20 1
  20       20       21 ar
  21       21       22 ar
  22       22       23 ar
  23       23       24 1
  24       24       25 am
  25       25       26 2
  26       25       27 am
  27       27       28 1
  28       28       29 1
  29       29       30 1
  30       30       28 1
  31       23       31 ar
  32       31       32 ar
  33       32       20 ar
  34       16       33 ar
  35       33        8 ar
  36       33       34 1
  37       34        6 2
  38       34       35 1
  39       12       36 1
  40       18       37 1
  41        1       38 1
  42        1       39 1
  43        1       40 1
  44        2       41 1
  45        2       42 1
  46       11       43 1
  47       11       44 1
  48       13       45 1
  49       13       46 1
  50       13       47 1
  51       14       48 1
  52       14       49 1
  53       14       50 1
  54       17       51 1
  55       19       52 1
  56       19       53 1
  57       19       54 1
  58       21       55 1
  59       22       56 1
  60       24       57 1
  61       27       58 1
  62       28       59 1
  63       29       60 1
  64       29       61 1
  65       30       62 1
  66       30       63 1
  67       31       64 1
  68       32       65 1
  69       35       66 1
  70       35       67 1
  71       35       68 1

