@<TRIPOS>MOLECULE
*****
 68 71 0 0 0
SMALL
USER_CHARGES

@<TRIPOS>ATOM
      1 C1          1.5187   -6.5289    1.3627 C.3     1  LIG1        0.0000
      2 C2          2.9078   -5.9123    1.3349 C.3     1  LIG1        0.0000
      3 O3          2.7967   -4.4983    1.2663 O.3     1  LIG1        0.0000
      4 C4          3.9313   -3.8443    1.2364 C.2     1  LIG1        0.0000
      5 O5          4.9704   -4.4438    1.2669 O.2     1  LIG1        0.0000
      6 C6          3.9317   -2.3942    1.1662 C.2     1  LIG1        0.0000
      7 S7          5.3318   -1.4225    1.1213 S.3     1  LIG1        0.0000
      8 C8          4.4922    0.0539    1.0500 C.3     1  LIG1        0.0000
      9 N9          5.1195    1.2293    0.9918 N.pl3   1  LIG1        0.0000
     10 C10         4.3414    2.3115    0.9365 C.3     1  LIG1        0.0000
     11 C11         5.0558    3.6491    0.8682 C.3     1  LIG1        0.0000
     12 N12         5.2864    4.1515    2.2303 N.4     1  LIG1        1.0000
     13 C13         3.9967    4.3193    2.9156 C.3     1  LIG1        0.0000
     14 C14         6.1147    3.1909    2.9733 C.3     1  LIG1        0.0000
     15 N15         3.0038    2.1971    0.9404 N.pl3   1  LIG1        0.0000
     16 C16         2.4000    1.0000    1.0000 C.3     1  LIG1        0.0000
     17 N17         1.0000    1.0000    1.0000 N.pl3   1  LIG1        0.0000
     18 C18         0.2650    2.2717    0.9417 C.3     1  LIG1        0.0000
     19 C19        -0.2038    2.6504    2.3371 C.3     1  LIG1        0.0000
     20 C20        -0.9391    2.1195    0.0264 C.3     1  LIG1        0.0000
     21 C21        -1.7840    3.2059   -0.1783 C.3     1  LIG1        0.0000
     22 C22        -2.8838    3.0605   -1.0169 C.3     1  LIG1        0.0000
     23 C23        -3.1284    1.8397   -1.6382 C.3     1  LIG1        0.0000
     24 N24        -4.2376    1.6985   -2.4809 N.am    1  LIG1        0.0000
     25 C25        -5.2033    0.7705   -2.1924 C.2     1  LIG1        0.0000
     26 O26        -4.9118   -0.2377   -1.6105 O.2     1  LIG1        0.0000
     27 N27        -6.5017    0.9935   -2.5683 N.am    1  LIG1        0.0000
     28 C28        -7.6017    0.4370   -1.7725 C.3     1  LIG1        0.0000
     29 C29        -7.6985    1.0606   -0.4160 C.3     1  LIG1        0.0000
     30 C30        -8.6735    1.4477   -1.4892 C.3     1  LIG1        0.0000
     31 C31        -2.2831    0.7541   -1.4341 C.3     1  LIG1        0.0000
     32 C32        -1.1828    0.8998   -0.5959 C.3     1  LIG1        0.0000
     33 C33         3.1369   -0.1861    1.0544 C.3     1  LIG1        0.0000
     34 C34         2.8370   -1.5769    1.1262 C.2     1  LIG1        0.0000
     35 C35         1.4318   -2.1607    1.1556 C.3     1  LIG1        0.0000
     36 H           5.7571    5.0327    2.1854 H       1  LIG1        0.0000
     37 H           0.8656    2.9878    0.5860 H       1  LIG1        0.0000
     38 H           1.5970   -7.5247    1.4110 H       1  LIG1        0.0000
     39 H           1.0215   -6.1944    2.1632 H       1  LIG1        0.0000
     40 H           1.0239   -6.2733    0.5321 H       1  LIG1        0.0000
     41 H           3.4026   -6.1679    2.1655 H       1  LIG1        0.0000
     42 H           3.4050   -6.2469    0.5344 H       1  LIG1        0.0000
     43 H           5.9331    3.5350    0.4021 H       1  LIG1        0.0000
     44 H           4.4923    4.3026    0.3628 H       1  LIG1        0.0000
     45 H           4.1536    4.6611    3.8422 H       1  LIG1        0.0000
     46 H           3.4333    4.9728    2.4101 H       1  LIG1        0.0000
     47 H           3.5261    3.4381    2.9605 H       1  LIG1        0.0000
     48 H           6.2716    3.5327    3.8999 H       1  LIG1        0.0000
     49 H           5.6440    2.3097    3.0183 H       1  LIG1        0.0000
     50 H           6.9920    3.0768    2.5071 H       1  LIG1        0.0000
     51 H           0.5000    0.1349    1.0397 H       1  LIG1        0.0000
     52 H          -0.7038    3.5155    2.2974 H       1  LIG1        0.0000
     53 H          -0.8044    1.9343    2.6927 H       1  LIG1        0.0000
     54 H           0.5883    2.7506    2.9391 H       1  LIG1        0.0000
     55 H          -1.6027    4.0802    0.2720 H       1  LIG1        0.0000
     56 H          -3.4989    3.8333   -1.1734 H       1  LIG1        0.0000
     57 H          -4.3250    2.2750   -3.2933 H       1  LIG1        0.0000
     58 H          -6.6998    1.5355   -3.3850 H       1  LIG1        0.0000
     59 H          -7.8531   -0.5239   -1.8888 H       1  LIG1        0.0000
     60 H          -7.0023    1.7121   -0.1146 H       1  LIG1        0.0000
     61 H          -8.0046    0.5151    0.3642 H       1  LIG1        0.0000
     62 H          -9.6289    1.1595   -1.4251 H       1  LIG1        0.0000
     63 H          -8.6266    2.3565   -1.9039 H       1  LIG1        0.0000
     64 H          -2.4642   -0.1202   -1.8844 H       1  LIG1        0.0000
     65 H          -0.5668    0.1275   -0.4407 H       1  LIG1        0.0000
     66 H           1.4861   -3.1579    1.2072 H       1  LIG1        0.0000
     67 H           0.9425   -1.8117    1.9548 H       1  LIG1        0.0000
     68 H           0.9434   -1.8961    0.3240 H       1  LIG1        0.0000
@<TRIPOS>UNITY_ATOM_ATTR
12 1
charge 1
@<TRIPOS>BOND
     1     1     2    1
     2     2     3    1
     3     3     4    1
     4     4     5    2
     5     4     6    1
     6     6     7    1
     7     7     8    1
     8     8     9   ar
     9     9    10   ar
    10    10    11    1
    11    11    12    1
    12    12    13    1
    13    12    14    1
    14    10    15   ar
    15    15    16   ar
    16    16    17    1
    17    17    18    1
    18    18    19    1
    19    18    20    1
    20    20    21   ar
    21    21    22   ar
    22    22    23   ar
    23    23    24    1
    24    24    25   am
    25    25    26    2
    26    25    27   am
    27    27    28    1
    28    28    29    1
    29    29    30    1
    30    30    28    1
    31    23    31   ar
    32    31    32   ar
    33    32    20   ar
    34    16    33   ar
    35    33     8   ar
    36    33    34    1
    37    34     6    2
    38    34    35    1
    39    12    36    1
    40    18    37    1
    41     1    38    1
    42     1    39    1
    43     1    40    1
    44     2    41    1
    45     2    42    1
    46    11    43    1
    47    11    44    1
    48    13    45    1
    49    13    46    1
    50    13    47    1
    51    14    48    1
    52    14    49    1
    53    14    50    1
    54    17    51    1
    55    19    52    1
    56    19    53    1
    57    19    54    1
    58    21    55    1
    59    22    56    1
    60    24    57    1
    61    27    58    1
    62    28    59    1
    63    29    60    1
    64    29    61    1
    65    30    62    1
    66    30    63    1
    67    31    64    1
    68    32    65    1
    69    35    66    1
    70    35    67    1
    71    35    68    1
