@<TRIPOS>MOLECULE
*****
 68 71 0 0 0
SMALL
USER_CHARGES

@<TRIPOS>ATOM
      1 C1          1.5187   -6.5289    1.3627 C.3     1  LIG1        0.0000
      2 C2          2.9078   -5.9123    1.3349 C.3     1  LIG1        0.0000
      3 O3          2.7967   -4.4983    1.2663 O.3     1  LIG1        0.0000
      4 C4          3.9313   -3.8443    1.2364 C.2     1  LIG1        0.0000
      5 O5          4.9704   -4.4438    1.2669 O.2     1  LIG1        0.0000
      6 C6          3.9317   -2.3942    1.1662 C.2     1  LIG1        0.0000
      7 S7          5.3318   -1.4225    1.1213 S.3     1  LIG1        0.0000
      8 C8          4.4922    0.0539    1.0500 C.3     1  LIG1        0.0000
      9 N9          5.1195    1.2293    0.9918 N.pl3   1  LIG1        0.0000
     10 C10         4.3414    2.3115    0.9365 C.3     1  LIG1        0.0000
     11 C11         5.0558    3.6491    0.8682 C.3     1  LIG1        0.0000
     12 N12         5.2864    4.1515    2.2303 N.4     1  LIG1        1.0000
     13 C13         4.7482    3.1912    3.2045 C.3     1  LIG1        0.0000
     14 C14         6.7298    4.3187    2.4532 C.3     1  LIG1        0.0000
     15 N15         3.0038    2.1971    0.9404 N.pl3   1  LIG1        0.0000
     16 C16         2.4000    1.0000    1.0000 C.3     1  LIG1        0.0000
     17 N17         1.0000    1.0000    1.0000 N.pl3   1  LIG1        0.0000
     18 C18         0.2650    2.2717    0.9417 C.3     1  LIG1        0.0000
     19 C19         0.0117    2.6444   -0.5100 C.3     1  LIG1        0.0000
     20 C20         1.0865    3.3629    1.6090 C.3     1  LIG1        0.0000
     21 C21         1.8210    4.2440    0.8214 C.3     1  LIG1        0.0000
     22 C22         2.5704    5.2403    1.4378 C.3     1  LIG1        0.0000
     23 C23         2.5799    5.3460    2.8252 C.3     1  LIG1        0.0000
     24 N24         3.3368    6.3504    3.4407 N.am    1  LIG1        0.0000
     25 C25         3.3496    6.4588    4.8063 C.2     1  LIG1        0.0000
     26 O26         3.2064    5.4811    5.4872 O.2     1  LIG1        0.0000
     27 N27         3.5259    7.6835    5.3946 N.am    1  LIG1        0.0000
     28 C28         3.9745    7.7698    6.7890 C.3     1  LIG1        0.0000
     29 C29         5.4654    7.7494    6.9121 C.3     1  LIG1        0.0000
     30 C30         4.7183    9.0408    7.0747 C.3     1  LIG1        0.0000
     31 C31         1.8448    4.4656    3.6122 C.3     1  LIG1        0.0000
     32 C32         1.0948    3.4696    2.9957 C.3     1  LIG1        0.0000
     33 C33         3.1369   -0.1861    1.0544 C.3     1  LIG1        0.0000
     34 C34         2.8370   -1.5769    1.1262 C.2     1  LIG1        0.0000
     35 C35         1.4318   -2.1607    1.1556 C.3     1  LIG1        0.0000
     36 H           4.8275    5.0329    2.3426 H       1  LIG1        0.0000
     37 H          -0.6088    2.1739    1.4180 H       1  LIG1        0.0000
     38 H           1.5970   -7.5247    1.4110 H       1  LIG1        0.0000
     39 H           1.0215   -6.1944    2.1632 H       1  LIG1        0.0000
     40 H           1.0239   -6.2733    0.5321 H       1  LIG1        0.0000
     41 H           3.4026   -6.1679    2.1655 H       1  LIG1        0.0000
     42 H           3.4050   -6.2469    0.5344 H       1  LIG1        0.0000
     43 H           5.9331    3.5350    0.4021 H       1  LIG1        0.0000
     44 H           4.4923    4.3026    0.3628 H       1  LIG1        0.0000
     45 H           4.9050    3.5330    4.1311 H       1  LIG1        0.0000
     46 H           3.7663    3.0774    3.0529 H       1  LIG1        0.0000
     47 H           5.2071    2.3098    3.0922 H       1  LIG1        0.0000
     48 H           6.8866    4.6605    3.3797 H       1  LIG1        0.0000
     49 H           7.1887    3.4374    2.3408 H       1  LIG1        0.0000
     50 H           7.0959    4.9720    1.7905 H       1  LIG1        0.0000
     51 H           0.5000    0.1349    1.0397 H       1  LIG1        0.0000
     52 H          -0.4883    3.5095   -0.5497 H       1  LIG1        0.0000
     53 H           0.8854    2.7422   -0.9864 H       1  LIG1        0.0000
     54 H          -0.5288    1.9266   -0.9490 H       1  LIG1        0.0000
     55 H           1.8101    4.1619   -0.1751 H       1  LIG1        0.0000
     56 H           3.1024    5.8807    0.8839 H       1  LIG1        0.0000
     57 H           3.8681    6.9885    2.8834 H       1  LIG1        0.0000
     58 H           3.3487    8.5185    4.8737 H       1  LIG1        0.0000
     59 H           3.4179    7.3556    7.5091 H       1  LIG1        0.0000
     60 H           6.0318    7.5983    6.1020 H       1  LIG1        0.0000
     61 H           5.8955    7.3176    7.7049 H       1  LIG1        0.0000
     62 H           4.6495    9.4692    7.9757 H       1  LIG1        0.0000
     63 H           4.7858    9.7498    6.3728 H       1  LIG1        0.0000
     64 H           1.8555    4.5477    4.6087 H       1  LIG1        0.0000
     65 H           0.5615    2.8302    3.5495 H       1  LIG1        0.0000
     66 H           1.4861   -3.1579    1.2072 H       1  LIG1        0.0000
     67 H           0.9425   -1.8117    1.9548 H       1  LIG1        0.0000
     68 H           0.9434   -1.8961    0.3240 H       1  LIG1        0.0000
@<TRIPOS>UNITY_ATOM_ATTR
12 1
charge 1
@<TRIPOS>BOND
     1     1     2    1
     2     2     3    1
     3     3     4    1
     4     4     5    2
     5     4     6    1
     6     6     7    1
     7     7     8    1
     8     8     9   ar
     9     9    10   ar
    10    10    11    1
    11    11    12    1
    12    12    13    1
    13    12    14    1
    14    10    15   ar
    15    15    16   ar
    16    16    17    1
    17    17    18    1
    18    18    19    1
    19    18    20    1
    20    20    21   ar
    21    21    22   ar
    22    22    23   ar
    23    23    24    1
    24    24    25   am
    25    25    26    2
    26    25    27   am
    27    27    28    1
    28    28    29    1
    29    29    30    1
    30    30    28    1
    31    23    31   ar
    32    31    32   ar
    33    32    20   ar
    34    16    33   ar
    35    33     8   ar
    36    33    34    1
    37    34     6    2
    38    34    35    1
    39    12    36    1
    40    18    37    1
    41     1    38    1
    42     1    39    1
    43     1    40    1
    44     2    41    1
    45     2    42    1
    46    11    43    1
    47    11    44    1
    48    13    45    1
    49    13    46    1
    50    13    47    1
    51    14    48    1
    52    14    49    1
    53    14    50    1
    54    17    51    1
    55    19    52    1
    56    19    53    1
    57    19    54    1
    58    21    55    1
    59    22    56    1
    60    24    57    1
    61    27    58    1
    62    28    59    1
    63    29    60    1
    64    29    61    1
    65    30    62    1
    66    30    63    1
    67    31    64    1
    68    32    65    1
    69    35    66    1
    70    35    67    1
    71    35    68    1
