@<TRIPOS>MOLECULE

  29   32
SMALL
USER_CHARGES
@<TRIPOS>ATOM
   1 C1          -2.5107     3.9024     0.8805 C.ar         1    LIG   0.0000
   2 N2          -1.3811     3.1814     0.7988 N.ar         1    LIG   0.0000
   3 C3          -1.2829     2.0864     0.0254 C.ar         1    LIG   0.0000
   4 C4          -0.0173     1.3776     0.0102 C.ar         1    LIG   0.0000
   5 C5           1.1712     2.1003     0.0072 C.ar         1    LIG   0.0000
   6 C6           2.3824     1.4162    -0.0077 C.ar         1    LIG   0.0000
   7 C7           2.3953     0.0257    -0.0205 C.ar         1    LIG   0.0000
   8 C8           3.7203    -0.7122    -0.0371 C.3          1    LIG   0.0000
   9 C9           4.8889    -0.1082    -0.7515 C.3          1    LIG   0.0000
  10 C10          4.8511    -0.1169     0.7532 C.3          1    LIG   0.0000
  11 C11          1.2016    -0.6895    -0.0163 C.ar         1    LIG   0.0000
  12 C12         -0.0137    -0.0137    -0.0015 C.ar         1    LIG   0.0000
  13 C13         -2.3407     1.6127    -0.7510 C.ar         1    LIG   0.0000
  14 N14         -2.5424     0.5555    -1.6101 N.2          1    LIG   0.0000
  15 C15         -3.7334     0.4642    -2.1647 C.2          1    LIG   0.0000
  16 S16         -4.6453     1.7738    -1.5791 S.3          1    LIG   0.0000
  17 C17         -3.4324     2.4351    -0.5893 C.ar         1    LIG   0.0000
  18 N18         -3.5773     3.5271     0.1663 N.ar         1    LIG   0.0000
  19 H           -2.5539     4.7103     1.4682 H            1    LIG   0.0000
  20 H            1.1552     3.1001     0.0158 H            1    LIG   0.0000
  21 H            3.2436     1.9243    -0.0092 H            1    LIG   0.0000
  22 H            3.6676    -1.7108    -0.0459 H            1    LIG   0.0000
  23 H            4.7801     0.7522    -1.2493 H            1    LIG   0.0000
  24 H            5.5350    -0.6958    -1.2387 H            1    LIG   0.0000
  25 H            5.4706    -0.7110     1.2663 H            1    LIG   0.0000
  26 H            4.7158     0.7370     1.2557 H            1    LIG   0.0000
  27 H            1.2177    -1.6893    -0.0240 H            1    LIG   0.0000
  28 H           -0.8750    -0.5218     0.0008 H            1    LIG   0.0000
  29 H           -4.0415    -0.2388    -2.8057 H            1    LIG   0.0000
@<TRIPOS>BOND
   1        1        2 ar
   2        2        3 ar
   3        3        4 1
   4        4        5 ar
   5        5        6 ar
   6        6        7 ar
   7        7        8 1
   8        8        9 1
   9        9       10 1
  10       10        8 1
  11        7       11 ar
  12       11       12 ar
  13       12        4 ar
  14        3       13 ar
  15       13       14 1
  16       14       15 2
  17       15       16 1
  18       16       17 1
  19       17       13 ar
  20       17       18 ar
  21       18        1 ar
  22        1       19 1
  23        5       20 1
  24        6       21 1
  25        8       22 1
  26        9       23 1
  27        9       24 1
  28       10       25 1
  29       10       26 1
  30       11       27 1
  31       12       28 1
  32       15       29 1

@<TRIPOS>MOLECULE

  29   32
SMALL
USER_CHARGES
@<TRIPOS>ATOM
   1 C1          -2.5107     3.9024     0.8805 C.ar         1    LIG   0.0000
   2 N2          -1.3811     3.1814     0.7988 N.ar         1    LIG   0.0000
   3 C3          -1.2829     2.0864     0.0254 C.ar         1    LIG   0.0000
   4 C4          -0.0173     1.3776     0.0102 C.ar         1    LIG   0.0000
   5 C5           1.1712     2.1003     0.0072 C.ar         1    LIG   0.0000
   6 C6           2.3824     1.4162    -0.0077 C.ar         1    LIG   0.0000
   7 C7           2.3953     0.0257    -0.0205 C.ar         1    LIG   0.0000
   8 C8           3.7203    -0.7122    -0.0371 C.3          1    LIG   0.0000
   9 C9           3.8356    -2.0312     0.6612 C.3          1    LIG   0.0000
  10 C10          3.7944    -1.9785    -0.8426 C.3          1    LIG   0.0000
  11 C11          1.2016    -0.6895    -0.0163 C.ar         1    LIG   0.0000
  12 C12         -0.0137    -0.0137    -0.0015 C.ar         1    LIG   0.0000
  13 C13         -2.3407     1.6127    -0.7510 C.ar         1    LIG   0.0000
  14 N14         -2.5424     0.5555    -1.6101 N.2          1    LIG   0.0000
  15 C15         -3.7334     0.4642    -2.1647 C.2          1    LIG   0.0000
  16 S16         -4.6453     1.7738    -1.5791 S.3          1    LIG   0.0000
  17 C17         -3.4324     2.4351    -0.5893 C.ar         1    LIG   0.0000
  18 N18         -3.5773     3.5271     0.1663 N.ar         1    LIG   0.0000
  19 H           -2.5539     4.7103     1.4682 H            1    LIG   0.0000
  20 H            1.1552     3.1001     0.0158 H            1    LIG   0.0000
  21 H            3.2436     1.9243    -0.0092 H            1    LIG   0.0000
  22 H            4.5415    -0.1416    -0.0380 H            1    LIG   0.0000
  23 H            3.0565    -2.3972     1.1701 H            1    LIG   0.0000
  24 H            4.6845    -2.2762     1.1296 H            1    LIG   0.0000
  25 H            4.6157    -2.1869    -1.3737 H            1    LIG   0.0000
  26 H            2.9877    -2.3079    -1.3332 H            1    LIG   0.0000
  27 H            1.2177    -1.6893    -0.0240 H            1    LIG   0.0000
  28 H           -0.8750    -0.5218     0.0008 H            1    LIG   0.0000
  29 H           -4.0415    -0.2388    -2.8057 H            1    LIG   0.0000
@<TRIPOS>BOND
   1        1        2 ar
   2        2        3 ar
   3        3        4 1
   4        4        5 ar
   5        5        6 ar
   6        6        7 ar
   7        7        8 1
   8        8        9 1
   9        9       10 1
  10       10        8 1
  11        7       11 ar
  12       11       12 ar
  13       12        4 ar
  14        3       13 ar
  15       13       14 1
  16       14       15 2
  17       15       16 1
  18       16       17 1
  19       17       13 ar
  20       17       18 ar
  21       18        1 ar
  22        1       19 1
  23        5       20 1
  24        6       21 1
  25        8       22 1
  26        9       23 1
  27        9       24 1
  28       10       25 1
  29       10       26 1
  30       11       27 1
  31       12       28 1
  32       15       29 1

@<TRIPOS>MOLECULE

  29   32
SMALL
USER_CHARGES
@<TRIPOS>ATOM
   1 C1          -2.3687     4.1736     0.0524 C.ar         1    LIG   0.0000
   2 N2          -1.2510     3.4301     0.0362 N.ar         1    LIG   0.0000
   3 C3          -1.2829     2.0864     0.0254 C.ar         1    LIG   0.0000
   4 C4          -0.0173     1.3776     0.0102 C.ar         1    LIG   0.0000
   5 C5           1.1712     2.1003     0.0072 C.ar         1    LIG   0.0000
   6 C6           2.3824     1.4162    -0.0077 C.ar         1    LIG   0.0000
   7 C7           2.3953     0.0257    -0.0205 C.ar         1    LIG   0.0000
   8 C8           3.7203    -0.7122    -0.0371 C.3          1    LIG   0.0000
   9 C9           3.7922    -2.0799    -0.6413 C.3          1    LIG   0.0000
  10 C10          4.3859    -0.9045    -1.3704 C.3          1    LIG   0.0000
  11 C11          1.2016    -0.6895    -0.0163 C.ar         1    LIG   0.0000
  12 C12         -0.0137    -0.0137    -0.0015 C.ar         1    LIG   0.0000
  13 C13         -2.4734     1.3591     0.0302 C.ar         1    LIG   0.0000
  14 N14         -2.8192     0.0260     0.0274 N.2          1    LIG   0.0000
  15 C15         -4.1070    -0.2499     0.0302 C.2          1    LIG   0.0000
  16 S16         -4.9246     1.2404     0.0344 S.3          1    LIG   0.0000
  17 C17         -3.5412     2.2273     0.0390 C.ar         1    LIG   0.0000
  18 N18         -3.5586     3.5630     0.0526 N.ar         1    LIG   0.0000
  19 H           -2.3123     5.1720     0.0643 H            1    LIG   0.0000
  20 H            1.1552     3.1001     0.0158 H            1    LIG   0.0000
  21 H            3.2436     1.9243    -0.0092 H            1    LIG   0.0000
  22 H            4.3288    -0.5410     0.7377 H            1    LIG   0.0000
  23 H            2.9628    -2.5169    -0.9892 H            1    LIG   0.0000
  24 H            4.3907    -2.7730    -0.2394 H            1    LIG   0.0000
  25 H            5.3786    -0.8152    -1.4521 H            1    LIG   0.0000
  26 H            3.9507    -0.5591    -2.2019 H            1    LIG   0.0000
  27 H            1.2177    -1.6893    -0.0240 H            1    LIG   0.0000
  28 H           -0.8750    -0.5218     0.0008 H            1    LIG   0.0000
  29 H           -4.5229    -1.1593     0.0300 H            1    LIG   0.0000
@<TRIPOS>BOND
   1        1        2 ar
   2        2        3 ar
   3        3        4 1
   4        4        5 ar
   5        5        6 ar
   6        6        7 ar
   7        7        8 1
   8        8        9 1
   9        9       10 1
  10       10        8 1
  11        7       11 ar
  12       11       12 ar
  13       12        4 ar
  14        3       13 ar
  15       13       14 1
  16       14       15 2
  17       15       16 1
  18       16       17 1
  19       17       13 ar
  20       17       18 ar
  21       18        1 ar
  22        1       19 1
  23        5       20 1
  24        6       21 1
  25        8       22 1
  26        9       23 1
  27        9       24 1
  28       10       25 1
  29       10       26 1
  30       11       27 1
  31       12       28 1
  32       15       29 1

@<TRIPOS>MOLECULE

  29   32
SMALL
USER_CHARGES
@<TRIPOS>ATOM
   1 C1          -2.5219     3.9180    -0.7786 C.ar         1    LIG   0.0000
   2 N2          -1.3925     3.1939    -0.7284 N.ar         1    LIG   0.0000
   3 C3          -1.2829     2.0864     0.0254 C.ar         1    LIG   0.0000
   4 C4          -0.0173     1.3776     0.0102 C.ar         1    LIG   0.0000
   5 C5           1.1712     2.1003     0.0072 C.ar         1    LIG   0.0000
   6 C6           2.3824     1.4162    -0.0077 C.ar         1    LIG   0.0000
   7 C7           2.3953     0.0257    -0.0205 C.ar         1    LIG   0.0000
   8 C8           3.7203    -0.7122    -0.0371 C.3          1    LIG   0.0000
   9 C9           4.8889    -0.1082    -0.7515 C.3          1    LIG   0.0000
  10 C10          4.8511    -0.1169     0.7532 C.3          1    LIG   0.0000
  11 C11          1.2016    -0.6895    -0.0163 C.ar         1    LIG   0.0000
  12 C12         -0.0137    -0.0137    -0.0015 C.ar         1    LIG   0.0000
  13 C13         -2.3279     1.6020     0.8125 C.ar         1    LIG   0.0000
  14 N14         -2.5133     0.5369     1.6657 N.2          1    LIG   0.0000
  15 C15         -3.6989     0.4315     2.2294 C.2          1    LIG   0.0000
  16 S16         -4.6283     1.7347     1.6572 S.3          1    LIG   0.0000
  17 C17         -3.4258     2.4198     0.6711 C.ar         1    LIG   0.0000
  18 N18         -3.5802     3.5268    -0.0605 N.ar         1    LIG   0.0000
  19 H           -2.5712     4.7399    -1.3460 H            1    LIG   0.0000
  20 H            1.1552     3.1001     0.0158 H            1    LIG   0.0000
  21 H            3.2436     1.9243    -0.0092 H            1    LIG   0.0000
  22 H            3.6676    -1.7108    -0.0459 H            1    LIG   0.0000
  23 H            4.7801     0.7522    -1.2493 H            1    LIG   0.0000
  24 H            5.5350    -0.6958    -1.2387 H            1    LIG   0.0000
  25 H            5.4706    -0.7110     1.2663 H            1    LIG   0.0000
  26 H            4.7158     0.7370     1.2557 H            1    LIG   0.0000
  27 H            1.2177    -1.6893    -0.0240 H            1    LIG   0.0000
  28 H           -0.8750    -0.5218     0.0008 H            1    LIG   0.0000
  29 H           -3.9948    -0.2775     2.8697 H            1    LIG   0.0000
@<TRIPOS>BOND
   1        1        2 ar
   2        2        3 ar
   3        3        4 1
   4        4        5 ar
   5        5        6 ar
   6        6        7 ar
   7        7        8 1
   8        8        9 1
   9        9       10 1
  10       10        8 1
  11        7       11 ar
  12       11       12 ar
  13       12        4 ar
  14        3       13 ar
  15       13       14 1
  16       14       15 2
  17       15       16 1
  18       16       17 1
  19       17       13 ar
  20       17       18 ar
  21       18        1 ar
  22        1       19 1
  23        5       20 1
  24        6       21 1
  25        8       22 1
  26        9       23 1
  27        9       24 1
  28       10       25 1
  29       10       26 1
  30       11       27 1
  31       12       28 1
  32       15       29 1

@<TRIPOS>MOLECULE

  29   32
SMALL
USER_CHARGES
@<TRIPOS>ATOM
   1 C1          -2.5219     3.9180    -0.7786 C.ar         1    LIG   0.0000
   2 N2          -1.3925     3.1939    -0.7284 N.ar         1    LIG   0.0000
   3 C3          -1.2829     2.0864     0.0254 C.ar         1    LIG   0.0000
   4 C4          -0.0173     1.3776     0.0102 C.ar         1    LIG   0.0000
   5 C5           1.1712     2.1003     0.0072 C.ar         1    LIG   0.0000
   6 C6           2.3824     1.4162    -0.0077 C.ar         1    LIG   0.0000
   7 C7           2.3953     0.0257    -0.0205 C.ar         1    LIG   0.0000
   8 C8           3.7203    -0.7122    -0.0371 C.3          1    LIG   0.0000
   9 C9           4.7164    -0.4584     1.0510 C.3          1    LIG   0.0000
  10 C10          3.9447    -1.7505     1.0256 C.3          1    LIG   0.0000
  11 C11          1.2016    -0.6895    -0.0163 C.ar         1    LIG   0.0000
  12 C12         -0.0137    -0.0137    -0.0015 C.ar         1    LIG   0.0000
  13 C13         -2.3279     1.6020     0.8125 C.ar         1    LIG   0.0000
  14 N14         -2.5133     0.5369     1.6657 N.2          1    LIG   0.0000
  15 C15         -3.6989     0.4315     2.2294 C.2          1    LIG   0.0000
  16 S16         -4.6283     1.7347     1.6572 S.3          1    LIG   0.0000
  17 C17         -3.4258     2.4198     0.6711 C.ar         1    LIG   0.0000
  18 N18         -3.5802     3.5268    -0.0605 N.ar         1    LIG   0.0000
  19 H           -2.5712     4.7399    -1.3460 H            1    LIG   0.0000
  20 H            1.1552     3.1001     0.0158 H            1    LIG   0.0000
  21 H            3.2436     1.9243    -0.0092 H            1    LIG   0.0000
  22 H            4.0979    -0.9180    -0.9399 H            1    LIG   0.0000
  23 H            4.5240     0.2249     1.7554 H            1    LIG   0.0000
  24 H            5.6945    -0.4562     0.8427 H            1    LIG   0.0000
  25 H            4.4090    -2.6067     0.7990 H            1    LIG   0.0000
  26 H            3.2386    -1.9257     1.7116 H            1    LIG   0.0000
  27 H            1.2177    -1.6893    -0.0240 H            1    LIG   0.0000
  28 H           -0.8750    -0.5218     0.0008 H            1    LIG   0.0000
  29 H           -3.9948    -0.2775     2.8697 H            1    LIG   0.0000
@<TRIPOS>BOND
   1        1        2 ar
   2        2        3 ar
   3        3        4 1
   4        4        5 ar
   5        5        6 ar
   6        6        7 ar
   7        7        8 1
   8        8        9 1
   9        9       10 1
  10       10        8 1
  11        7       11 ar
  12       11       12 ar
  13       12        4 ar
  14        3       13 ar
  15       13       14 1
  16       14       15 2
  17       15       16 1
  18       16       17 1
  19       17       13 ar
  20       17       18 ar
  21       18        1 ar
  22        1       19 1
  23        5       20 1
  24        6       21 1
  25        8       22 1
  26        9       23 1
  27        9       24 1
  28       10       25 1
  29       10       26 1
  30       11       27 1
  31       12       28 1
  32       15       29 1

@<TRIPOS>MOLECULE

  29   32
SMALL
USER_CHARGES
@<TRIPOS>ATOM
   1 C1          -2.5219     3.9180    -0.7786 C.ar         1    LIG   0.0000
   2 N2          -1.3925     3.1939    -0.7284 N.ar         1    LIG   0.0000
   3 C3          -1.2829     2.0864     0.0254 C.ar         1    LIG   0.0000
   4 C4          -0.0173     1.3776     0.0102 C.ar         1    LIG   0.0000
   5 C5           1.1712     2.1003     0.0072 C.ar         1    LIG   0.0000
   6 C6           2.3824     1.4162    -0.0077 C.ar         1    LIG   0.0000
   7 C7           2.3953     0.0257    -0.0205 C.ar         1    LIG   0.0000
   8 C8           3.7203    -0.7122    -0.0371 C.3          1    LIG   0.0000
   9 C9           4.0081    -1.6810    -1.1413 C.3          1    LIG   0.0000
  10 C10          4.7007    -0.3449    -1.1149 C.3          1    LIG   0.0000
  11 C11          1.2016    -0.6895    -0.0163 C.ar         1    LIG   0.0000
  12 C12         -0.0137    -0.0137    -0.0015 C.ar         1    LIG   0.0000
  13 C13         -2.3279     1.6020     0.8125 C.ar         1    LIG   0.0000
  14 N14         -2.5133     0.5369     1.6657 N.2          1    LIG   0.0000
  15 C15         -3.6989     0.4315     2.2294 C.2          1    LIG   0.0000
  16 S16         -4.6283     1.7347     1.6572 S.3          1    LIG   0.0000
  17 C17         -3.4258     2.4198     0.6711 C.ar         1    LIG   0.0000
  18 N18         -3.5802     3.5268    -0.0605 N.ar         1    LIG   0.0000
  19 H           -2.5712     4.7399    -1.3460 H            1    LIG   0.0000
  20 H            1.1552     3.1001     0.0158 H            1    LIG   0.0000
  21 H            3.2436     1.9243    -0.0092 H            1    LIG   0.0000
  22 H            4.1112    -0.9344     0.8561 H            1    LIG   0.0000
  23 H            3.3126    -1.8698    -1.8346 H            1    LIG   0.0000
  24 H            4.5250    -2.5158    -0.9517 H            1    LIG   0.0000
  25 H            5.6773    -0.2911    -0.9063 H            1    LIG   0.0000
  26 H            4.4648     0.3549    -1.7892 H            1    LIG   0.0000
  27 H            1.2177    -1.6893    -0.0240 H            1    LIG   0.0000
  28 H           -0.8750    -0.5218     0.0008 H            1    LIG   0.0000
  29 H           -3.9948    -0.2775     2.8697 H            1    LIG   0.0000
@<TRIPOS>BOND
   1        1        2 ar
   2        2        3 ar
   3        3        4 1
   4        4        5 ar
   5        5        6 ar
   6        6        7 ar
   7        7        8 1
   8        8        9 1
   9        9       10 1
  10       10        8 1
  11        7       11 ar
  12       11       12 ar
  13       12        4 ar
  14        3       13 ar
  15       13       14 1
  16       14       15 2
  17       15       16 1
  18       16       17 1
  19       17       13 ar
  20       17       18 ar
  21       18        1 ar
  22        1       19 1
  23        5       20 1
  24        6       21 1
  25        8       22 1
  26        9       23 1
  27        9       24 1
  28       10       25 1
  29       10       26 1
  30       11       27 1
  31       12       28 1
  32       15       29 1

@<TRIPOS>MOLECULE

  29   32
SMALL
USER_CHARGES
@<TRIPOS>ATOM
   1 C1          -2.6916     3.6211    -1.0684 C.ar         1    LIG   0.0000
   2 N2          -1.5489     2.9203    -0.9947 N.ar         1    LIG   0.0000
   3 C3          -1.2829     2.0864     0.0254 C.ar         1    LIG   0.0000
   4 C4          -0.0173     1.3776     0.0102 C.ar         1    LIG   0.0000
   5 C5           1.1712     2.1003     0.0072 C.ar         1    LIG   0.0000
   6 C6           2.3824     1.4162    -0.0077 C.ar         1    LIG   0.0000
   7 C7           2.3953     0.0257    -0.0205 C.ar         1    LIG   0.0000
   8 C8           3.7203    -0.7122    -0.0371 C.3          1    LIG   0.0000
   9 C9           3.8356    -2.0312     0.6612 C.3          1    LIG   0.0000
  10 C10          3.7944    -1.9785    -0.8426 C.3          1    LIG   0.0000
  11 C11          1.2016    -0.6895    -0.0163 C.ar         1    LIG   0.0000
  12 C12         -0.0137    -0.0137    -0.0015 C.ar         1    LIG   0.0000
  13 C13         -2.1676     1.8824     1.0847 C.ar         1    LIG   0.0000
  14 N14         -2.1770     1.1252     2.2349 N.2          1    LIG   0.0000
  15 C15         -3.2485     1.2192     2.9949 C.2          1    LIG   0.0000
  16 S16         -4.2980     2.3122     2.2245 S.3          1    LIG   0.0000
  17 C17         -3.2971     2.6447     0.8920 C.ar         1    LIG   0.0000
  18 N18         -3.6037     3.4858    -0.0995 N.ar         1    LIG   0.0000
  19 H           -2.8588     4.2369    -1.8383 H            1    LIG   0.0000
  20 H            1.1552     3.1001     0.0158 H            1    LIG   0.0000
  21 H            3.2436     1.9243    -0.0092 H            1    LIG   0.0000
  22 H            4.5415    -0.1416    -0.0380 H            1    LIG   0.0000
  23 H            3.0565    -2.3972     1.1701 H            1    LIG   0.0000
  24 H            4.6845    -2.2762     1.1296 H            1    LIG   0.0000
  25 H            4.6157    -2.1869    -1.3737 H            1    LIG   0.0000
  26 H            2.9877    -2.3079    -1.3332 H            1    LIG   0.0000
  27 H            1.2177    -1.6893    -0.0240 H            1    LIG   0.0000
  28 H           -0.8750    -0.5218     0.0008 H            1    LIG   0.0000
  29 H           -3.4128     0.7406     3.8575 H            1    LIG   0.0000
@<TRIPOS>BOND
   1        1        2 ar
   2        2        3 ar
   3        3        4 1
   4        4        5 ar
   5        5        6 ar
   6        6        7 ar
   7        7        8 1
   8        8        9 1
   9        9       10 1
  10       10        8 1
  11        7       11 ar
  12       11       12 ar
  13       12        4 ar
  14        3       13 ar
  15       13       14 1
  16       14       15 2
  17       15       16 1
  18       16       17 1
  19       17       13 ar
  20       17       18 ar
  21       18        1 ar
  22        1       19 1
  23        5       20 1
  24        6       21 1
  25        8       22 1
  26        9       23 1
  27        9       24 1
  28       10       25 1
  29       10       26 1
  30       11       27 1
  31       12       28 1
  32       15       29 1

@<TRIPOS>MOLECULE

  29   32
SMALL
USER_CHARGES
@<TRIPOS>ATOM
   1 C1          -3.4881     2.1929    -0.7883 C.ar         1    LIG   0.0000
   2 N2          -2.2820     1.6058    -0.7347 N.ar         1    LIG   0.0000
   3 C3          -1.2829     2.0864     0.0254 C.ar         1    LIG   0.0000
   4 C4          -0.0173     1.3776     0.0102 C.ar         1    LIG   0.0000
   5 C5           1.1712     2.1003     0.0072 C.ar         1    LIG   0.0000
   6 C6           2.3824     1.4162    -0.0077 C.ar         1    LIG   0.0000
   7 C7           2.3953     0.0257    -0.0205 C.ar         1    LIG   0.0000
   8 C8           3.7203    -0.7122    -0.0371 C.3          1    LIG   0.0000
   9 C9           4.7164    -0.4584     1.0510 C.3          1    LIG   0.0000
  10 C10          3.9447    -1.7505     1.0256 C.3          1    LIG   0.0000
  11 C11          1.2016    -0.6895    -0.0163 C.ar         1    LIG   0.0000
  12 C12         -0.0137    -0.0137    -0.0015 C.ar         1    LIG   0.0000
  13 C13         -1.4174     3.2277     0.8162 C.ar         1    LIG   0.0000
  14 N14         -0.6056     3.9433     1.6680 N.2          1    LIG   0.0000
  15 C15         -1.1398     5.0007     2.2434 C.2          1    LIG   0.0000
  16 S16         -2.7433     5.0998     1.6880 S.3          1    LIG   0.0000
  17 C17         -2.6917     3.7304     0.6831 C.ar         1    LIG   0.0000
  18 N18         -3.7123     3.2910    -0.0585 N.ar         1    LIG   0.0000
  19 H           -4.2103     1.8136    -1.3668 H            1    LIG   0.0000
  20 H            1.1552     3.1001     0.0158 H            1    LIG   0.0000
  21 H            3.2436     1.9243    -0.0092 H            1    LIG   0.0000
  22 H            4.0979    -0.9180    -0.9399 H            1    LIG   0.0000
  23 H            4.5240     0.2249     1.7554 H            1    LIG   0.0000
  24 H            5.6945    -0.4562     0.8427 H            1    LIG   0.0000
  25 H            4.4090    -2.6067     0.7990 H            1    LIG   0.0000
  26 H            3.2386    -1.9257     1.7116 H            1    LIG   0.0000
  27 H            1.2177    -1.6893    -0.0240 H            1    LIG   0.0000
  28 H           -0.8750    -0.5218     0.0008 H            1    LIG   0.0000
  29 H           -0.6896     5.6241     2.8827 H            1    LIG   0.0000
@<TRIPOS>BOND
   1        1        2 ar
   2        2        3 ar
   3        3        4 1
   4        4        5 ar
   5        5        6 ar
   6        6        7 ar
   7        7        8 1
   8        8        9 1
   9        9       10 1
  10       10        8 1
  11        7       11 ar
  12       11       12 ar
  13       12        4 ar
  14        3       13 ar
  15       13       14 1
  16       14       15 2
  17       15       16 1
  18       16       17 1
  19       17       13 ar
  20       17       18 ar
  21       18        1 ar
  22        1       19 1
  23        5       20 1
  24        6       21 1
  25        8       22 1
  26        9       23 1
  27        9       24 1
  28       10       25 1
  29       10       26 1
  30       11       27 1
  31       12       28 1
  32       15       29 1

@<TRIPOS>MOLECULE

  29   32
SMALL
USER_CHARGES
@<TRIPOS>ATOM
   1 C1          -3.4881     2.1929    -0.7883 C.ar         1    LIG   0.0000
   2 N2          -2.2820     1.6058    -0.7347 N.ar         1    LIG   0.0000
   3 C3          -1.2829     2.0864     0.0254 C.ar         1    LIG   0.0000
   4 C4          -0.0173     1.3776     0.0102 C.ar         1    LIG   0.0000
   5 C5           1.1712     2.1003     0.0072 C.ar         1    LIG   0.0000
   6 C6           2.3824     1.4162    -0.0077 C.ar         1    LIG   0.0000
   7 C7           2.3953     0.0257    -0.0205 C.ar         1    LIG   0.0000
   8 C8           3.7203    -0.7122    -0.0371 C.3          1    LIG   0.0000
   9 C9           4.0081    -1.6810    -1.1413 C.3          1    LIG   0.0000
  10 C10          4.7007    -0.3449    -1.1149 C.3          1    LIG   0.0000
  11 C11          1.2016    -0.6895    -0.0163 C.ar         1    LIG   0.0000
  12 C12         -0.0137    -0.0137    -0.0015 C.ar         1    LIG   0.0000
  13 C13         -1.4174     3.2277     0.8162 C.ar         1    LIG   0.0000
  14 N14         -0.6056     3.9433     1.6680 N.2          1    LIG   0.0000
  15 C15         -1.1398     5.0007     2.2434 C.2          1    LIG   0.0000
  16 S16         -2.7433     5.0998     1.6880 S.3          1    LIG   0.0000
  17 C17         -2.6917     3.7304     0.6831 C.ar         1    LIG   0.0000
  18 N18         -3.7123     3.2910    -0.0585 N.ar         1    LIG   0.0000
  19 H           -4.2103     1.8136    -1.3668 H            1    LIG   0.0000
  20 H            1.1552     3.1001     0.0158 H            1    LIG   0.0000
  21 H            3.2436     1.9243    -0.0092 H            1    LIG   0.0000
  22 H            4.1112    -0.9344     0.8561 H            1    LIG   0.0000
  23 H            3.3126    -1.8698    -1.8346 H            1    LIG   0.0000
  24 H            4.5250    -2.5158    -0.9517 H            1    LIG   0.0000
  25 H            5.6773    -0.2911    -0.9063 H            1    LIG   0.0000
  26 H            4.4648     0.3549    -1.7892 H            1    LIG   0.0000
  27 H            1.2177    -1.6893    -0.0240 H            1    LIG   0.0000
  28 H           -0.8750    -0.5218     0.0008 H            1    LIG   0.0000
  29 H           -0.6896     5.6241     2.8827 H            1    LIG   0.0000
@<TRIPOS>BOND
   1        1        2 ar
   2        2        3 ar
   3        3        4 1
   4        4        5 ar
   5        5        6 ar
   6        6        7 ar
   7        7        8 1
   8        8        9 1
   9        9       10 1
  10       10        8 1
  11        7       11 ar
  12       11       12 ar
  13       12        4 ar
  14        3       13 ar
  15       13       14 1
  16       14       15 2
  17       15       16 1
  18       16       17 1
  19       17       13 ar
  20       17       18 ar
  21       18        1 ar
  22        1       19 1
  23        5       20 1
  24        6       21 1
  25        8       22 1
  26        9       23 1
  27        9       24 1
  28       10       25 1
  29       10       26 1
  30       11       27 1
  31       12       28 1
  32       15       29 1

@<TRIPOS>MOLECULE

  29   32
SMALL
USER_CHARGES
@<TRIPOS>ATOM
   1 C1          -3.4769     2.1773     0.8708 C.ar         1    LIG   0.0000
   2 N2          -2.2706     1.5933     0.7925 N.ar         1    LIG   0.0000
   3 C3          -1.2829     2.0864     0.0254 C.ar         1    LIG   0.0000
   4 C4          -0.0173     1.3776     0.0102 C.ar         1    LIG   0.0000
   5 C5           1.1712     2.1003     0.0072 C.ar         1    LIG   0.0000
   6 C6           2.3824     1.4162    -0.0077 C.ar         1    LIG   0.0000
   7 C7           2.3953     0.0257    -0.0205 C.ar         1    LIG   0.0000
   8 C8           3.7203    -0.7122    -0.0371 C.3          1    LIG   0.0000
   9 C9           4.8889    -0.1082    -0.7515 C.3          1    LIG   0.0000
  10 C10          4.8511    -0.1169     0.7532 C.3          1    LIG   0.0000
  11 C11          1.2016    -0.6895    -0.0163 C.ar         1    LIG   0.0000
  12 C12         -0.0137    -0.0137    -0.0015 C.ar         1    LIG   0.0000
  13 C13         -1.4302     3.2385    -0.7473 C.ar         1    LIG   0.0000
  14 N14         -0.6347     3.9618    -1.6078 N.2          1    LIG   0.0000
  15 C15         -1.1743     5.0335    -2.1508 C.2          1    LIG   0.0000
  16 S16         -2.7603     5.1390    -1.5483 S.3          1    LIG   0.0000
  17 C17         -2.6983     3.7456    -0.5773 C.ar         1    LIG   0.0000
  18 N18         -3.7094     3.2913     0.1683 N.ar         1    LIG   0.0000
  19 H           -4.1930     1.7840     1.4475 H            1    LIG   0.0000
  20 H            1.1552     3.1001     0.0158 H            1    LIG   0.0000
  21 H            3.2436     1.9243    -0.0092 H            1    LIG   0.0000
  22 H            3.6676    -1.7108    -0.0459 H            1    LIG   0.0000
  23 H            4.7801     0.7522    -1.2493 H            1    LIG   0.0000
  24 H            5.5350    -0.6958    -1.2387 H            1    LIG   0.0000
  25 H            5.4706    -0.7110     1.2663 H            1    LIG   0.0000
  26 H            4.7158     0.7370     1.2557 H            1    LIG   0.0000
  27 H            1.2177    -1.6893    -0.0240 H            1    LIG   0.0000
  28 H           -0.8750    -0.5218     0.0008 H            1    LIG   0.0000
  29 H           -0.7363     5.6628    -2.7927 H            1    LIG   0.0000
@<TRIPOS>BOND
   1        1        2 ar
   2        2        3 ar
   3        3        4 1
   4        4        5 ar
   5        5        6 ar
   6        6        7 ar
   7        7        8 1
   8        8        9 1
   9        9       10 1
  10       10        8 1
  11        7       11 ar
  12       11       12 ar
  13       12        4 ar
  14        3       13 ar
  15       13       14 1
  16       14       15 2
  17       15       16 1
  18       16       17 1
  19       17       13 ar
  20       17       18 ar
  21       18        1 ar
  22        1       19 1
  23        5       20 1
  24        6       21 1
  25        8       22 1
  26        9       23 1
  27        9       24 1
  28       10       25 1
  29       10       26 1
  30       11       27 1
  31       12       28 1
  32       15       29 1

