@<TRIPOS>MOLECULE
*****
 29 32 0 0 0
SMALL
USER_CHARGES

@<TRIPOS>ATOM
      1 C1         -2.3687    4.1736    0.0524 C.ar    1  LIG1        0.0000
      2 N2         -1.2510    3.4301    0.0362 N.ar    1  LIG1        0.0000
      3 C3         -1.2829    2.0864    0.0254 C.ar    1  LIG1        0.0000
      4 C4         -0.0173    1.3776    0.0102 C.ar    1  LIG1        0.0000
      5 C5          1.1712    2.1003    0.0072 C.ar    1  LIG1        0.0000
      6 C6          2.3824    1.4162   -0.0077 C.ar    1  LIG1        0.0000
      7 C7          2.3953    0.0257   -0.0205 C.ar    1  LIG1        0.0000
      8 C8          3.7203   -0.7122   -0.0371 C.3     1  LIG1        0.0000
      9 C9          3.7922   -2.0799   -0.6413 C.3     1  LIG1        0.0000
     10 C10         4.3859   -0.9045   -1.3704 C.3     1  LIG1        0.0000
     11 C11         1.2016   -0.6895   -0.0163 C.ar    1  LIG1        0.0000
     12 C12        -0.0137   -0.0137   -0.0015 C.ar    1  LIG1        0.0000
     13 C13        -2.4734    1.3591    0.0302 C.ar    1  LIG1        0.0000
     14 N14        -2.8192    0.0260    0.0274 N.2     1  LIG1        0.0000
     15 C15        -4.1070   -0.2499    0.0302 C.2     1  LIG1        0.0000
     16 S16        -4.9246    1.2404    0.0344 S.3     1  LIG1        0.0000
     17 C17        -3.5412    2.2273    0.0390 C.ar    1  LIG1        0.0000
     18 N18        -3.5586    3.5630    0.0526 N.ar    1  LIG1        0.0000
     19 H          -2.3123    5.1720    0.0643 H       1  LIG1        0.0000
     20 H           1.1552    3.1001    0.0158 H       1  LIG1        0.0000
     21 H           3.2436    1.9243   -0.0092 H       1  LIG1        0.0000
     22 H           4.3288   -0.5410    0.7377 H       1  LIG1        0.0000
     23 H           2.9628   -2.5169   -0.9892 H       1  LIG1        0.0000
     24 H           4.3907   -2.7730   -0.2394 H       1  LIG1        0.0000
     25 H           5.3786   -0.8152   -1.4521 H       1  LIG1        0.0000
     26 H           3.9507   -0.5591   -2.2019 H       1  LIG1        0.0000
     27 H           1.2177   -1.6893   -0.0240 H       1  LIG1        0.0000
     28 H          -0.8750   -0.5218    0.0008 H       1  LIG1        0.0000
     29 H          -4.5229   -1.1593    0.0300 H       1  LIG1        0.0000
@<TRIPOS>BOND
     1     1     2   ar
     2     2     3   ar
     3     3     4    1
     4     4     5   ar
     5     5     6   ar
     6     6     7   ar
     7     7     8    1
     8     8     9    1
     9     9    10    1
    10    10     8    1
    11     7    11   ar
    12    11    12   ar
    13    12     4   ar
    14     3    13   ar
    15    13    14    1
    16    14    15    2
    17    15    16    1
    18    16    17    1
    19    17    13   ar
    20    17    18   ar
    21    18     1   ar
    22     1    19    1
    23     5    20    1
    24     6    21    1
    25     8    22    1
    26     9    23    1
    27     9    24    1
    28    10    25    1
    29    10    26    1
    30    11    27    1
    31    12    28    1
    32    15    29    1
