@<TRIPOS>MOLECULE

  61   64
SMALL
USER_CHARGES
@<TRIPOS>ATOM
   1 C1          -3.5886     2.2050     0.0436 C.3          1    LIG   0.0000
   2 O2          -2.4079     1.4161     0.0284 O.3          1    LIG   0.0000
   3 C3          -1.2821     2.0859     0.0254 C.2          1    LIG   0.0000
   4 O4          -1.2978     3.2858     0.0354 O.2          1    LIG   0.0000
   5 C5          -0.0173     1.3776     0.0102 C.ar         1    LIG   0.0000
   6 C6           1.1712     2.1003     0.0072 C.ar         1    LIG   0.0000
   7 C7           2.3824     1.4162    -0.0077 C.ar         1    LIG   0.0000
   8 C8           2.3953     0.0257    -0.0205 C.ar         1    LIG   0.0000
   9 C9           3.7237    -0.7141    -0.0372 C.3          1    LIG   0.0000
  10 N10          3.7116    -1.9053     0.8271 N.am         1    LIG   0.0000
  11 C11          4.1597    -3.1501     0.3680 C.2          1    LIG   0.0000
  12 O12          4.1427    -4.0906     1.1451 O.2          1    LIG   0.0000
  13 N13          4.6138    -3.3023    -0.9495 N.am         1    LIG   0.0000
  14 C14          5.0841    -4.6220    -1.3909 C.3          1    LIG   0.0000
  15 C15          3.9860    -5.3125    -2.1820 C.ar         1    LIG   0.0000
  16 C16          2.7012    -5.3866    -1.6550 C.ar         1    LIG   0.0000
  17 C17          1.6903    -6.0168    -2.3732 C.ar         1    LIG   0.0000
  18 C18          1.9824    -6.5683    -3.6164 C.ar         1    LIG   0.0000
  19 C19          0.9322    -7.2259    -4.3690 C.2          1    LIG   0.0000
  20 O20          1.1831    -7.7247    -5.4873 O.co2        1    LIG   0.0000
  21 O21         -0.1873    -7.2918    -3.9145 O.co2        1    LIG  -1.0000
  22 C22          3.2652    -6.4996    -4.1507 C.ar         1    LIG   0.0000
  23 C23          4.2698    -5.8678    -3.4259 C.ar         1    LIG   0.0000
  24 C24          4.6061    -2.2042    -1.8234 C.2          1    LIG   0.0000
  25 C25          5.0712    -2.4098    -3.2549 C.3          1    LIG   0.0000
  26 C26          4.2062    -0.9941    -1.4562 C.2          1    LIG   0.0000
  27 C27          4.2086     0.1092    -2.3990 C.2          1    LIG   0.0000
  28 O28          3.6999    -0.0224    -3.4778 O.2          1    LIG   0.0000
  29 N29          4.7917     1.3009    -2.0573 N.am         1    LIG   0.0000
  30 C30          4.7940     2.3654    -2.9670 C.ar         1    LIG   0.0000
  31 C31          5.9264     3.1639    -3.0892 C.ar         1    LIG   0.0000
  32 C32          5.9196     4.2196    -3.9948 C.ar         1    LIG   0.0000
  33 C33          4.7886     4.4676    -4.7667 C.ar         1    LIG   0.0000
  34 C34          3.6606     3.6637    -4.6381 C.ar         1    LIG   0.0000
  35 C35          3.6588     2.6061    -3.7342 C.ar         1    LIG   0.0000
  36 C36          1.2016    -0.6895    -0.0163 C.ar         1    LIG   0.0000
  37 C37         -0.0137    -0.0137    -0.0015 C.ar         1    LIG   0.0000
  38 H            4.3932    -0.0888     0.3638 H            1    LIG   0.0000
  39 H           -4.3895     1.6063     0.0447 H            1    LIG   0.0000
  40 H           -3.5977     2.7755     0.8649 H            1    LIG   0.0000
  41 H           -3.6099     2.7888    -0.7680 H            1    LIG   0.0000
  42 H            1.1552     3.1001     0.0158 H            1    LIG   0.0000
  43 H            3.2436     1.9243    -0.0092 H            1    LIG   0.0000
  44 H            3.3750    -1.8238     1.7652 H            1    LIG   0.0000
  45 H            5.3188    -5.1765    -0.5925 H            1    LIG   0.0000
  46 H            5.8924    -4.5115    -1.9692 H            1    LIG   0.0000
  47 H            2.5040    -4.9869    -0.7598 H            1    LIG   0.0000
  48 H            0.7642    -6.0728    -2.0001 H            1    LIG   0.0000
  49 H            3.4625    -6.9000    -5.0456 H            1    LIG   0.0000
  50 H            5.1961    -5.8125    -3.7986 H            1    LIG   0.0000
  51 H            5.0097    -1.5447    -3.7529 H            1    LIG   0.0000
  52 H            6.0193    -2.7277    -3.2550 H            1    LIG   0.0000
  53 H            4.4908    -3.0921    -3.6993 H            1    LIG   0.0000
  54 H            5.2156     1.4105    -1.1583 H            1    LIG   0.0000
  55 H            6.7364     2.9810    -2.5321 H            1    LIG   0.0000
  56 H            6.7277     4.8007    -4.0912 H            1    LIG   0.0000
  57 H            4.7867     5.2273    -5.4169 H            1    LIG   0.0000
  58 H            2.8507     3.8461    -5.1956 H            1    LIG   0.0000
  59 H            2.8505     2.0254    -3.6371 H            1    LIG   0.0000
  60 H            1.2177    -1.6893    -0.0240 H            1    LIG   0.0000
  61 H           -0.8750    -0.5218     0.0008 H            1    LIG   0.0000
@<TRIPOS>BOND
   1        1        2 1
   2        2        3 1
   3        3        4 2
   4        3        5 1
   5        5        6 ar
   6        6        7 ar
   7        7        8 ar
   8        8        9 1
   9        9       10 1
  10       10       11 am
  11       11       12 2
  12       11       13 am
  13       13       14 1
  14       14       15 1
  15       15       16 ar
  16       16       17 ar
  17       17       18 ar
  18       18       19 1
  19       19       20 ar
  20       19       21 ar
  21       18       22 ar
  22       22       23 ar
  23       23       15 ar
  24       13       24 1
  25       24       25 1
  26       24       26 2
  27       26        9 1
  28       26       27 1
  29       27       28 2
  30       27       29 am
  31       29       30 1
  32       30       31 ar
  33       31       32 ar
  34       32       33 ar
  35       33       34 ar
  36       34       35 ar
  37       35       30 ar
  38        8       36 ar
  39       36       37 ar
  40       37        5 ar
  41        9       38 1
  42        1       39 1
  43        1       40 1
  44        1       41 1
  45        6       42 1
  46        7       43 1
  47       10       44 1
  48       14       45 1
  49       14       46 1
  50       16       47 1
  51       17       48 1
  52       22       49 1
  53       23       50 1
  54       25       51 1
  55       25       52 1
  56       25       53 1
  57       29       54 1
  58       31       55 1
  59       32       56 1
  60       33       57 1
  61       34       58 1
  62       35       59 1
  63       36       60 1
  64       37       61 1

@<TRIPOS>MOLECULE

  61   64
SMALL
USER_CHARGES
@<TRIPOS>ATOM
   1 C1          -3.5886     2.2050     0.0436 C.3          1    LIG   0.0000
   2 O2          -2.4079     1.4161     0.0284 O.3          1    LIG   0.0000
   3 C3          -1.2821     2.0859     0.0254 C.2          1    LIG   0.0000
   4 O4          -1.2978     3.2858     0.0354 O.2          1    LIG   0.0000
   5 C5          -0.0173     1.3776     0.0102 C.ar         1    LIG   0.0000
   6 C6           1.1712     2.1003     0.0072 C.ar         1    LIG   0.0000
   7 C7           2.3824     1.4162    -0.0077 C.ar         1    LIG   0.0000
   8 C8           2.3953     0.0257    -0.0205 C.ar         1    LIG   0.0000
   9 C9           3.7237    -0.7141    -0.0372 C.3          1    LIG   0.0000
  10 N10          3.7116    -1.9053     0.8271 N.am         1    LIG   0.0000
  11 C11          4.1597    -3.1501     0.3680 C.2          1    LIG   0.0000
  12 O12          4.1427    -4.0906     1.1451 O.2          1    LIG   0.0000
  13 N13          4.6138    -3.3023    -0.9495 N.am         1    LIG   0.0000
  14 C14          5.0841    -4.6220    -1.3909 C.3          1    LIG   0.0000
  15 C15          3.9860    -5.3125    -2.1820 C.ar         1    LIG   0.0000
  16 C16          2.7012    -5.3866    -1.6550 C.ar         1    LIG   0.0000
  17 C17          1.6903    -6.0168    -2.3732 C.ar         1    LIG   0.0000
  18 C18          1.9824    -6.5683    -3.6164 C.ar         1    LIG   0.0000
  19 C19          0.9322    -7.2259    -4.3690 C.2          1    LIG   0.0000
  20 O20          1.1831    -7.7247    -5.4873 O.co2        1    LIG   0.0000
  21 O21         -0.1873    -7.2918    -3.9145 O.co2        1    LIG  -1.0000
  22 C22          3.2652    -6.4996    -4.1507 C.ar         1    LIG   0.0000
  23 C23          4.2698    -5.8678    -3.4259 C.ar         1    LIG   0.0000
  24 C24          4.6061    -2.2042    -1.8234 C.2          1    LIG   0.0000
  25 C25          5.0712    -2.4098    -3.2549 C.3          1    LIG   0.0000
  26 C26          4.2062    -0.9941    -1.4562 C.2          1    LIG   0.0000
  27 C27          4.2086     0.1092    -2.3990 C.2          1    LIG   0.0000
  28 O28          4.4675     1.2190    -2.0232 O.2          1    LIG   0.0000
  29 N29          3.9152    -0.1163    -3.7181 N.am         1    LIG   0.0000
  30 C30          4.3102     0.8096    -4.6914 C.ar         1    LIG   0.0000
  31 C31          3.4506     1.1125    -5.7423 C.ar         1    LIG   0.0000
  32 C32          3.8514     2.0329    -6.7050 C.ar         1    LIG   0.0000
  33 C33          5.1000     2.6401    -6.6106 C.ar         1    LIG   0.0000
  34 C34          5.9530     2.3315    -5.5560 C.ar         1    LIG   0.0000
  35 C35          5.5602     1.4114    -4.5892 C.ar         1    LIG   0.0000
  36 C36          1.2016    -0.6895    -0.0163 C.ar         1    LIG   0.0000
  37 C37         -0.0137    -0.0137    -0.0015 C.ar         1    LIG   0.0000
  38 H            4.3932    -0.0888     0.3638 H            1    LIG   0.0000
  39 H           -4.3895     1.6063     0.0447 H            1    LIG   0.0000
  40 H           -3.5977     2.7755     0.8649 H            1    LIG   0.0000
  41 H           -3.6099     2.7888    -0.7680 H            1    LIG   0.0000
  42 H            1.1552     3.1001     0.0158 H            1    LIG   0.0000
  43 H            3.2436     1.9243    -0.0092 H            1    LIG   0.0000
  44 H            3.3750    -1.8238     1.7652 H            1    LIG   0.0000
  45 H            5.3188    -5.1765    -0.5925 H            1    LIG   0.0000
  46 H            5.8924    -4.5115    -1.9692 H            1    LIG   0.0000
  47 H            2.5040    -4.9869    -0.7598 H            1    LIG   0.0000
  48 H            0.7642    -6.0728    -2.0001 H            1    LIG   0.0000
  49 H            3.4625    -6.9000    -5.0456 H            1    LIG   0.0000
  50 H            5.1961    -5.8125    -3.7986 H            1    LIG   0.0000
  51 H            5.0097    -1.5447    -3.7529 H            1    LIG   0.0000
  52 H            6.0193    -2.7277    -3.2550 H            1    LIG   0.0000
  53 H            4.4908    -3.0921    -3.6993 H            1    LIG   0.0000
  54 H            3.4191    -0.9423    -3.9858 H            1    LIG   0.0000
  55 H            2.5544     0.6732    -5.8050 H            1    LIG   0.0000
  56 H            3.2422     2.2584    -7.4652 H            1    LIG   0.0000
  57 H            5.3854     3.3015    -7.3043 H            1    LIG   0.0000
  58 H            6.8490     2.7711    -5.4928 H            1    LIG   0.0000
  59 H            6.1696     1.1852    -3.8293 H            1    LIG   0.0000
  60 H            1.2177    -1.6893    -0.0240 H            1    LIG   0.0000
  61 H           -0.8750    -0.5218     0.0008 H            1    LIG   0.0000
@<TRIPOS>BOND
   1        1        2 1
   2        2        3 1
   3        3        4 2
   4        3        5 1
   5        5        6 ar
   6        6        7 ar
   7        7        8 ar
   8        8        9 1
   9        9       10 1
  10       10       11 am
  11       11       12 2
  12       11       13 am
  13       13       14 1
  14       14       15 1
  15       15       16 ar
  16       16       17 ar
  17       17       18 ar
  18       18       19 1
  19       19       20 ar
  20       19       21 ar
  21       18       22 ar
  22       22       23 ar
  23       23       15 ar
  24       13       24 1
  25       24       25 1
  26       24       26 2
  27       26        9 1
  28       26       27 1
  29       27       28 2
  30       27       29 am
  31       29       30 1
  32       30       31 ar
  33       31       32 ar
  34       32       33 ar
  35       33       34 ar
  36       34       35 ar
  37       35       30 ar
  38        8       36 ar
  39       36       37 ar
  40       37        5 ar
  41        9       38 1
  42        1       39 1
  43        1       40 1
  44        1       41 1
  45        6       42 1
  46        7       43 1
  47       10       44 1
  48       14       45 1
  49       14       46 1
  50       16       47 1
  51       17       48 1
  52       22       49 1
  53       23       50 1
  54       25       51 1
  55       25       52 1
  56       25       53 1
  57       29       54 1
  58       31       55 1
  59       32       56 1
  60       33       57 1
  61       34       58 1
  62       35       59 1
  63       36       60 1
  64       37       61 1

@<TRIPOS>MOLECULE

  61   64
SMALL
USER_CHARGES
@<TRIPOS>ATOM
   1 C1          -2.5887     3.9902     0.0507 C.3          1    LIG   0.0000
   2 O2          -1.2992     3.3957     0.0363 O.3          1    LIG   0.0000
   3 C3          -1.2821     2.0859     0.0254 C.2          1    LIG   0.0000
   4 O4          -2.3134     1.4724     0.0281 O.2          1    LIG   0.0000
   5 C5          -0.0173     1.3776     0.0102 C.ar         1    LIG   0.0000
   6 C6           1.1712     2.1003     0.0072 C.ar         1    LIG   0.0000
   7 C7           2.3824     1.4162    -0.0077 C.ar         1    LIG   0.0000
   8 C8           2.3953     0.0257    -0.0205 C.ar         1    LIG   0.0000
   9 C9           3.7237    -0.7141    -0.0372 C.3          1    LIG   0.0000
  10 N10          3.7116    -1.9053     0.8271 N.am         1    LIG   0.0000
  11 C11          4.1597    -3.1501     0.3680 C.2          1    LIG   0.0000
  12 O12          4.1427    -4.0906     1.1451 O.2          1    LIG   0.0000
  13 N13          4.6138    -3.3023    -0.9495 N.am         1    LIG   0.0000
  14 C14          5.0841    -4.6220    -1.3909 C.3          1    LIG   0.0000
  15 C15          3.9860    -5.3125    -2.1820 C.ar         1    LIG   0.0000
  16 C16          2.7695    -4.6676    -2.3774 C.ar         1    LIG   0.0000
  17 C17          1.7593    -5.2929    -3.1008 C.ar         1    LIG   0.0000
  18 C18          1.9826    -6.5637    -3.6206 C.ar         1    LIG   0.0000
  19 C19          0.9329    -7.2195    -4.3755 C.2          1    LIG   0.0000
  20 O20          1.1225    -8.3614    -4.8475 O.co2        1    LIG   0.0000
  21 O21         -0.1267    -6.6616    -4.5487 O.co2        1    LIG  -1.0000
  22 C22          3.1961    -7.2167    -3.4290 C.ar         1    LIG   0.0000
  23 C23          4.2006    -6.5841    -2.7045 C.ar         1    LIG   0.0000
  24 C24          4.6061    -2.2042    -1.8234 C.2          1    LIG   0.0000
  25 C25          5.0712    -2.4098    -3.2549 C.3          1    LIG   0.0000
  26 C26          4.2062    -0.9941    -1.4562 C.2          1    LIG   0.0000
  27 C27          4.2086     0.1092    -2.3990 C.2          1    LIG   0.0000
  28 O28          5.1900     0.3401    -3.0498 O.2          1    LIG   0.0000
  29 N29          3.0904     0.8870    -2.5460 N.am         1    LIG   0.0000
  30 C30          2.9206     1.6573    -3.7030 C.ar         1    LIG   0.0000
  31 C31          1.8142     1.4408    -4.5177 C.ar         1    LIG   0.0000
  32 C32          1.6538     2.2101    -5.6654 C.ar         1    LIG   0.0000
  33 C33          2.5942     3.1839    -5.9879 C.ar         1    LIG   0.0000
  34 C34          3.6975     3.3937    -5.1672 C.ar         1    LIG   0.0000
  35 C35          3.8658     2.6282    -4.0177 C.ar         1    LIG   0.0000
  36 C36          1.2016    -0.6895    -0.0163 C.ar         1    LIG   0.0000
  37 C37         -0.0137    -0.0137    -0.0015 C.ar         1    LIG   0.0000
  38 H            4.3932    -0.0888     0.3638 H            1    LIG   0.0000
  39 H           -2.4966     4.9859     0.0582 H            1    LIG   0.0000
  40 H           -3.0949     3.7083    -0.7643 H            1    LIG   0.0000
  41 H           -3.0827     3.6950     0.8686 H            1    LIG   0.0000
  42 H            1.1552     3.1001     0.0158 H            1    LIG   0.0000
  43 H            3.2436     1.9243    -0.0092 H            1    LIG   0.0000
  44 H            3.3750    -1.8238     1.7652 H            1    LIG   0.0000
  45 H            5.3188    -5.1765    -0.5925 H            1    LIG   0.0000
  46 H            5.8924    -4.5115    -1.9692 H            1    LIG   0.0000
  47 H            2.6210    -3.7543    -1.9980 H            1    LIG   0.0000
  48 H            0.8825    -4.8342    -3.2454 H            1    LIG   0.0000
  49 H            3.3443    -8.1302    -3.8078 H            1    LIG   0.0000
  50 H            5.0770    -7.0431    -2.5591 H            1    LIG   0.0000
  51 H            5.0097    -1.5447    -3.7529 H            1    LIG   0.0000
  52 H            6.0193    -2.7277    -3.2550 H            1    LIG   0.0000
  53 H            4.4908    -3.0921    -3.6993 H            1    LIG   0.0000
  54 H            2.3956     0.9047    -1.8271 H            1    LIG   0.0000
  55 H            1.1414     0.7399    -4.2810 H            1    LIG   0.0000
  56 H            0.8625     2.0634    -6.2589 H            1    LIG   0.0000
  57 H            2.4762     3.7354    -6.8137 H            1    LIG   0.0000
  58 H            4.3700     4.0951    -5.4034 H            1    LIG   0.0000
  59 H            4.6574     2.7742    -3.4244 H            1    LIG   0.0000
  60 H            1.2177    -1.6893    -0.0240 H            1    LIG   0.0000
  61 H           -0.8750    -0.5218     0.0008 H            1    LIG   0.0000
@<TRIPOS>BOND
   1        1        2 1
   2        2        3 1
   3        3        4 2
   4        3        5 1
   5        5        6 ar
   6        6        7 ar
   7        7        8 ar
   8        8        9 1
   9        9       10 1
  10       10       11 am
  11       11       12 2
  12       11       13 am
  13       13       14 1
  14       14       15 1
  15       15       16 ar
  16       16       17 ar
  17       17       18 ar
  18       18       19 1
  19       19       20 ar
  20       19       21 ar
  21       18       22 ar
  22       22       23 ar
  23       23       15 ar
  24       13       24 1
  25       24       25 1
  26       24       26 2
  27       26        9 1
  28       26       27 1
  29       27       28 2
  30       27       29 am
  31       29       30 1
  32       30       31 ar
  33       31       32 ar
  34       32       33 ar
  35       33       34 ar
  36       34       35 ar
  37       35       30 ar
  38        8       36 ar
  39       36       37 ar
  40       37        5 ar
  41        9       38 1
  42        1       39 1
  43        1       40 1
  44        1       41 1
  45        6       42 1
  46        7       43 1
  47       10       44 1
  48       14       45 1
  49       14       46 1
  50       16       47 1
  51       17       48 1
  52       22       49 1
  53       23       50 1
  54       25       51 1
  55       25       52 1
  56       25       53 1
  57       29       54 1
  58       31       55 1
  59       32       56 1
  60       33       57 1
  61       34       58 1
  62       35       59 1
  63       36       60 1
  64       37       61 1

@<TRIPOS>MOLECULE

  61   64
SMALL
USER_CHARGES
@<TRIPOS>ATOM
   1 C1          -2.5147     3.9948    -0.3882 C.3          1    LIG   0.0000
   2 O2          -1.2992     3.3957     0.0363 O.3          1    LIG   0.0000
   3 C3          -1.2821     2.0859     0.0254 C.2          1    LIG   0.0000
   4 O4          -2.3134     1.4724     0.0281 O.2          1    LIG   0.0000
   5 C5          -0.0173     1.3776     0.0102 C.ar         1    LIG   0.0000
   6 C6           1.1712     2.1003     0.0072 C.ar         1    LIG   0.0000
   7 C7           2.3824     1.4162    -0.0077 C.ar         1    LIG   0.0000
   8 C8           2.3953     0.0257    -0.0205 C.ar         1    LIG   0.0000
   9 C9           3.7237    -0.7141    -0.0372 C.3          1    LIG   0.0000
  10 N10          3.7116    -1.9053     0.8271 N.am         1    LIG   0.0000
  11 C11          4.1597    -3.1501     0.3680 C.2          1    LIG   0.0000
  12 O12          4.1427    -4.0906     1.1451 O.2          1    LIG   0.0000
  13 N13          4.6138    -3.3023    -0.9495 N.am         1    LIG   0.0000
  14 C14          5.0841    -4.6220    -1.3909 C.3          1    LIG   0.0000
  15 C15          4.4065    -4.9893    -2.7002 C.ar         1    LIG   0.0000
  16 C16          3.0243    -4.8842    -2.8126 C.ar         1    LIG   0.0000
  17 C17          2.3965    -5.2183    -4.0081 C.ar         1    LIG   0.0000
  18 C18          3.1664    -5.6566    -5.0805 C.ar         1    LIG   0.0000
  19 C19          2.5167    -6.0057    -6.3286 C.2          1    LIG   0.0000
  20 O20          3.1985    -6.4005    -7.2991 O.co2        1    LIG   0.0000
  21 O21          1.3145    -5.9149    -6.4310 O.co2        1    LIG  -1.0000
  22 C22          4.5495    -5.7657    -4.9765 C.ar         1    LIG   0.0000
  23 C23          5.1689    -5.4297    -3.7777 C.ar         1    LIG   0.0000
  24 C24          4.6061    -2.2042    -1.8234 C.2          1    LIG   0.0000
  25 C25          5.0712    -2.4098    -3.2549 C.3          1    LIG   0.0000
  26 C26          4.2062    -0.9941    -1.4562 C.2          1    LIG   0.0000
  27 C27          4.2086     0.1092    -2.3990 C.2          1    LIG   0.0000
  28 O28          3.6999    -0.0224    -3.4778 O.2          1    LIG   0.0000
  29 N29          4.7917     1.3009    -2.0573 N.am         1    LIG   0.0000
  30 C30          4.7940     2.3654    -2.9670 C.ar         1    LIG   0.0000
  31 C31          4.5722     3.6608    -2.5112 C.ar         1    LIG   0.0000
  32 C32          4.5755     4.7121    -3.4219 C.ar         1    LIG   0.0000
  33 C33          4.7993     4.4625    -4.7726 C.ar         1    LIG   0.0000
  34 C34          5.0205     3.1639    -5.2195 C.ar         1    LIG   0.0000
  35 C35          5.0182     2.1066    -4.3153 C.ar         1    LIG   0.0000
  36 C36          1.2016    -0.6895    -0.0163 C.ar         1    LIG   0.0000
  37 C37         -0.0137    -0.0137    -0.0015 C.ar         1    LIG   0.0000
  38 H            4.3932    -0.0888     0.3638 H            1    LIG   0.0000
  39 H           -2.4287     4.9902    -0.3447 H            1    LIG   0.0000
  40 H           -2.7122     3.7180    -1.3286 H            1    LIG   0.0000
  41 H           -3.2591     3.6981     0.2100 H            1    LIG   0.0000
  42 H            1.1552     3.1001     0.0158 H            1    LIG   0.0000
  43 H            3.2436     1.9243    -0.0092 H            1    LIG   0.0000
  44 H            3.3750    -1.8238     1.7652 H            1    LIG   0.0000
  45 H            4.8596    -5.3054    -0.6962 H            1    LIG   0.0000
  46 H            6.0748    -4.5953    -1.5244 H            1    LIG   0.0000
  47 H            2.4818    -4.5686    -2.0341 H            1    LIG   0.0000
  48 H            1.4031    -5.1443    -4.0955 H            1    LIG   0.0000
  49 H            5.0919    -6.0821    -5.7548 H            1    LIG   0.0000
  50 H            6.1623    -5.5045    -3.6899 H            1    LIG   0.0000
  51 H            5.0097    -1.5447    -3.7529 H            1    LIG   0.0000
  52 H            6.0193    -2.7277    -3.2550 H            1    LIG   0.0000
  53 H            4.4908    -3.0921    -3.6993 H            1    LIG   0.0000
  54 H            5.2156     1.4105    -1.1583 H            1    LIG   0.0000
  55 H            4.4121     3.8343    -1.5395 H            1    LIG   0.0000
  56 H            4.4170     5.6475    -3.1061 H            1    LIG   0.0000
  57 H            4.8012     5.2204    -5.4250 H            1    LIG   0.0000
  58 H            5.1813     2.9903    -6.1911 H            1    LIG   0.0000
  59 H            5.1759     1.1710    -4.6310 H            1    LIG   0.0000
  60 H            1.2177    -1.6893    -0.0240 H            1    LIG   0.0000
  61 H           -0.8750    -0.5218     0.0008 H            1    LIG   0.0000
@<TRIPOS>BOND
   1        1        2 1
   2        2        3 1
   3        3        4 2
   4        3        5 1
   5        5        6 ar
   6        6        7 ar
   7        7        8 ar
   8        8        9 1
   9        9       10 1
  10       10       11 am
  11       11       12 2
  12       11       13 am
  13       13       14 1
  14       14       15 1
  15       15       16 ar
  16       16       17 ar
  17       17       18 ar
  18       18       19 1
  19       19       20 ar
  20       19       21 ar
  21       18       22 ar
  22       22       23 ar
  23       23       15 ar
  24       13       24 1
  25       24       25 1
  26       24       26 2
  27       26        9 1
  28       26       27 1
  29       27       28 2
  30       27       29 am
  31       29       30 1
  32       30       31 ar
  33       31       32 ar
  34       32       33 ar
  35       33       34 ar
  36       34       35 ar
  37       35       30 ar
  38        8       36 ar
  39       36       37 ar
  40       37        5 ar
  41        9       38 1
  42        1       39 1
  43        1       40 1
  44        1       41 1
  45        6       42 1
  46        7       43 1
  47       10       44 1
  48       14       45 1
  49       14       46 1
  50       16       47 1
  51       17       48 1
  52       22       49 1
  53       23       50 1
  54       25       51 1
  55       25       52 1
  56       25       53 1
  57       29       54 1
  58       31       55 1
  59       32       56 1
  60       33       57 1
  61       34       58 1
  62       35       59 1
  63       36       60 1
  64       37       61 1

@<TRIPOS>MOLECULE

  61   64
SMALL
USER_CHARGES
@<TRIPOS>ATOM
   1 C1          -3.5886     2.2050     0.0436 C.3          1    LIG   0.0000
   2 O2          -2.4079     1.4161     0.0284 O.3          1    LIG   0.0000
   3 C3          -1.2821     2.0859     0.0254 C.2          1    LIG   0.0000
   4 O4          -1.2978     3.2858     0.0354 O.2          1    LIG   0.0000
   5 C5          -0.0173     1.3776     0.0102 C.ar         1    LIG   0.0000
   6 C6           1.1712     2.1003     0.0072 C.ar         1    LIG   0.0000
   7 C7           2.3824     1.4162    -0.0077 C.ar         1    LIG   0.0000
   8 C8           2.3953     0.0257    -0.0205 C.ar         1    LIG   0.0000
   9 C9           3.7237    -0.7141    -0.0372 C.3          1    LIG   0.0000
  10 N10          3.7116    -1.9053     0.8271 N.am         1    LIG   0.0000
  11 C11          4.1597    -3.1501     0.3680 C.2          1    LIG   0.0000
  12 O12          4.1427    -4.0906     1.1451 O.2          1    LIG   0.0000
  13 N13          4.6138    -3.3023    -0.9495 N.am         1    LIG   0.0000
  14 C14          5.0841    -4.6220    -1.3909 C.3          1    LIG   0.0000
  15 C15          4.4065    -4.9893    -2.7002 C.ar         1    LIG   0.0000
  16 C16          3.0243    -4.8842    -2.8126 C.ar         1    LIG   0.0000
  17 C17          2.3965    -5.2183    -4.0081 C.ar         1    LIG   0.0000
  18 C18          3.1664    -5.6566    -5.0805 C.ar         1    LIG   0.0000
  19 C19          2.5167    -6.0057    -6.3286 C.2          1    LIG   0.0000
  20 O20          3.1985    -6.4005    -7.2991 O.co2        1    LIG   0.0000
  21 O21          1.3145    -5.9149    -6.4310 O.co2        1    LIG  -1.0000
  22 C22          4.5495    -5.7657    -4.9765 C.ar         1    LIG   0.0000
  23 C23          5.1689    -5.4297    -3.7777 C.ar         1    LIG   0.0000
  24 C24          4.6061    -2.2042    -1.8234 C.2          1    LIG   0.0000
  25 C25          5.0712    -2.4098    -3.2549 C.3          1    LIG   0.0000
  26 C26          4.2062    -0.9941    -1.4562 C.2          1    LIG   0.0000
  27 C27          4.2086     0.1092    -2.3990 C.2          1    LIG   0.0000
  28 O28          5.1900     0.3401    -3.0498 O.2          1    LIG   0.0000
  29 N29          3.0904     0.8870    -2.5460 N.am         1    LIG   0.0000
  30 C30          2.9206     1.6573    -3.7030 C.ar         1    LIG   0.0000
  31 C31          2.3972     2.9423    -3.6037 C.ar         1    LIG   0.0000
  32 C32          2.2312     3.7000    -4.7582 C.ar         1    LIG   0.0000
  33 C33          2.5876     3.1715    -5.9952 C.ar         1    LIG   0.0000
  34 C34          3.1106     1.8856    -6.0851 C.ar         1    LIG   0.0000
  35 C35          3.2792     1.1207    -4.9353 C.ar         1    LIG   0.0000
  36 C36          1.2016    -0.6895    -0.0163 C.ar         1    LIG   0.0000
  37 C37         -0.0137    -0.0137    -0.0015 C.ar         1    LIG   0.0000
  38 H            4.3932    -0.0888     0.3638 H            1    LIG   0.0000
  39 H           -4.3895     1.6063     0.0447 H            1    LIG   0.0000
  40 H           -3.5977     2.7755     0.8649 H            1    LIG   0.0000
  41 H           -3.6099     2.7888    -0.7680 H            1    LIG   0.0000
  42 H            1.1552     3.1001     0.0158 H            1    LIG   0.0000
  43 H            3.2436     1.9243    -0.0092 H            1    LIG   0.0000
  44 H            3.3750    -1.8238     1.7652 H            1    LIG   0.0000
  45 H            4.8596    -5.3054    -0.6962 H            1    LIG   0.0000
  46 H            6.0748    -4.5953    -1.5244 H            1    LIG   0.0000
  47 H            2.4818    -4.5686    -2.0341 H            1    LIG   0.0000
  48 H            1.4031    -5.1443    -4.0955 H            1    LIG   0.0000
  49 H            5.0919    -6.0821    -5.7548 H            1    LIG   0.0000
  50 H            6.1623    -5.5045    -3.6899 H            1    LIG   0.0000
  51 H            5.0097    -1.5447    -3.7529 H            1    LIG   0.0000
  52 H            6.0193    -2.7277    -3.2550 H            1    LIG   0.0000
  53 H            4.4908    -3.0921    -3.6993 H            1    LIG   0.0000
  54 H            2.3956     0.9047    -1.8271 H            1    LIG   0.0000
  55 H            2.1430     3.3171    -2.7121 H            1    LIG   0.0000
  56 H            1.8557     4.6249    -4.6993 H            1    LIG   0.0000
  57 H            2.4671     3.7187    -6.8235 H            1    LIG   0.0000
  58 H            3.3654     1.5109    -6.9765 H            1    LIG   0.0000
  59 H            3.6540     0.1955    -4.9940 H            1    LIG   0.0000
  60 H            1.2177    -1.6893    -0.0240 H            1    LIG   0.0000
  61 H           -0.8750    -0.5218     0.0008 H            1    LIG   0.0000
@<TRIPOS>BOND
   1        1        2 1
   2        2        3 1
   3        3        4 2
   4        3        5 1
   5        5        6 ar
   6        6        7 ar
   7        7        8 ar
   8        8        9 1
   9        9       10 1
  10       10       11 am
  11       11       12 2
  12       11       13 am
  13       13       14 1
  14       14       15 1
  15       15       16 ar
  16       16       17 ar
  17       17       18 ar
  18       18       19 1
  19       19       20 ar
  20       19       21 ar
  21       18       22 ar
  22       22       23 ar
  23       23       15 ar
  24       13       24 1
  25       24       25 1
  26       24       26 2
  27       26        9 1
  28       26       27 1
  29       27       28 2
  30       27       29 am
  31       29       30 1
  32       30       31 ar
  33       31       32 ar
  34       32       33 ar
  35       33       34 ar
  36       34       35 ar
  37       35       30 ar
  38        8       36 ar
  39       36       37 ar
  40       37        5 ar
  41        9       38 1
  42        1       39 1
  43        1       40 1
  44        1       41 1
  45        6       42 1
  46        7       43 1
  47       10       44 1
  48       14       45 1
  49       14       46 1
  50       16       47 1
  51       17       48 1
  52       22       49 1
  53       23       50 1
  54       25       51 1
  55       25       52 1
  56       25       53 1
  57       29       54 1
  58       31       55 1
  59       32       56 1
  60       33       57 1
  61       34       58 1
  62       35       59 1
  63       36       60 1
  64       37       61 1

@<TRIPOS>MOLECULE

  61   64
SMALL
USER_CHARGES
@<TRIPOS>ATOM
   1 C1          -2.5887     3.9902     0.0507 C.3          1    LIG   0.0000
   2 O2          -1.2992     3.3957     0.0363 O.3          1    LIG   0.0000
   3 C3          -1.2821     2.0859     0.0254 C.2          1    LIG   0.0000
   4 O4          -2.3134     1.4724     0.0281 O.2          1    LIG   0.0000
   5 C5          -0.0173     1.3776     0.0102 C.ar         1    LIG   0.0000
   6 C6           1.1712     2.1003     0.0072 C.ar         1    LIG   0.0000
   7 C7           2.3824     1.4162    -0.0077 C.ar         1    LIG   0.0000
   8 C8           2.3953     0.0257    -0.0205 C.ar         1    LIG   0.0000
   9 C9           3.7237    -0.7141    -0.0372 C.3          1    LIG   0.0000
  10 N10          3.7116    -1.9053     0.8271 N.am         1    LIG   0.0000
  11 C11          4.1597    -3.1501     0.3680 C.2          1    LIG   0.0000
  12 O12          4.1427    -4.0906     1.1451 O.2          1    LIG   0.0000
  13 N13          4.6138    -3.3023    -0.9495 N.am         1    LIG   0.0000
  14 C14          5.0841    -4.6220    -1.3909 C.3          1    LIG   0.0000
  15 C15          4.4065    -4.9893    -2.7002 C.ar         1    LIG   0.0000
  16 C16          3.0243    -4.8842    -2.8126 C.ar         1    LIG   0.0000
  17 C17          2.3965    -5.2183    -4.0081 C.ar         1    LIG   0.0000
  18 C18          3.1664    -5.6566    -5.0805 C.ar         1    LIG   0.0000
  19 C19          2.5167    -6.0057    -6.3286 C.2          1    LIG   0.0000
  20 O20          3.1985    -6.4005    -7.2991 O.co2        1    LIG   0.0000
  21 O21          1.3145    -5.9149    -6.4310 O.co2        1    LIG  -1.0000
  22 C22          4.5495    -5.7657    -4.9765 C.ar         1    LIG   0.0000
  23 C23          5.1689    -5.4297    -3.7777 C.ar         1    LIG   0.0000
  24 C24          4.6061    -2.2042    -1.8234 C.2          1    LIG   0.0000
  25 C25          5.0712    -2.4098    -3.2549 C.3          1    LIG   0.0000
  26 C26          4.2062    -0.9941    -1.4562 C.2          1    LIG   0.0000
  27 C27          4.2086     0.1092    -2.3990 C.2          1    LIG   0.0000
  28 O28          4.4675     1.2190    -2.0232 O.2          1    LIG   0.0000
  29 N29          3.9152    -0.1163    -3.7181 N.am         1    LIG   0.0000
  30 C30          4.3102     0.8096    -4.6914 C.ar         1    LIG   0.0000
  31 C31          3.4506     1.1125    -5.7423 C.ar         1    LIG   0.0000
  32 C32          3.8514     2.0329    -6.7050 C.ar         1    LIG   0.0000
  33 C33          5.1000     2.6401    -6.6106 C.ar         1    LIG   0.0000
  34 C34          5.9530     2.3315    -5.5560 C.ar         1    LIG   0.0000
  35 C35          5.5602     1.4114    -4.5892 C.ar         1    LIG   0.0000
  36 C36          1.2016    -0.6895    -0.0163 C.ar         1    LIG   0.0000
  37 C37         -0.0137    -0.0137    -0.0015 C.ar         1    LIG   0.0000
  38 H            4.3932    -0.0888     0.3638 H            1    LIG   0.0000
  39 H           -2.4966     4.9859     0.0582 H            1    LIG   0.0000
  40 H           -3.0949     3.7083    -0.7643 H            1    LIG   0.0000
  41 H           -3.0827     3.6950     0.8686 H            1    LIG   0.0000
  42 H            1.1552     3.1001     0.0158 H            1    LIG   0.0000
  43 H            3.2436     1.9243    -0.0092 H            1    LIG   0.0000
  44 H            3.3750    -1.8238     1.7652 H            1    LIG   0.0000
  45 H            4.8596    -5.3054    -0.6962 H            1    LIG   0.0000
  46 H            6.0748    -4.5953    -1.5244 H            1    LIG   0.0000
  47 H            2.4818    -4.5686    -2.0341 H            1    LIG   0.0000
  48 H            1.4031    -5.1443    -4.0955 H            1    LIG   0.0000
  49 H            5.0919    -6.0821    -5.7548 H            1    LIG   0.0000
  50 H            6.1623    -5.5045    -3.6899 H            1    LIG   0.0000
  51 H            5.0097    -1.5447    -3.7529 H            1    LIG   0.0000
  52 H            6.0193    -2.7277    -3.2550 H            1    LIG   0.0000
  53 H            4.4908    -3.0921    -3.6993 H            1    LIG   0.0000
  54 H            3.4191    -0.9423    -3.9858 H            1    LIG   0.0000
  55 H            2.5544     0.6732    -5.8050 H            1    LIG   0.0000
  56 H            3.2422     2.2584    -7.4652 H            1    LIG   0.0000
  57 H            5.3854     3.3015    -7.3043 H            1    LIG   0.0000
  58 H            6.8490     2.7711    -5.4928 H            1    LIG   0.0000
  59 H            6.1696     1.1852    -3.8293 H            1    LIG   0.0000
  60 H            1.2177    -1.6893    -0.0240 H            1    LIG   0.0000
  61 H           -0.8750    -0.5218     0.0008 H            1    LIG   0.0000
@<TRIPOS>BOND
   1        1        2 1
   2        2        3 1
   3        3        4 2
   4        3        5 1
   5        5        6 ar
   6        6        7 ar
   7        7        8 ar
   8        8        9 1
   9        9       10 1
  10       10       11 am
  11       11       12 2
  12       11       13 am
  13       13       14 1
  14       14       15 1
  15       15       16 ar
  16       16       17 ar
  17       17       18 ar
  18       18       19 1
  19       19       20 ar
  20       19       21 ar
  21       18       22 ar
  22       22       23 ar
  23       23       15 ar
  24       13       24 1
  25       24       25 1
  26       24       26 2
  27       26        9 1
  28       26       27 1
  29       27       28 2
  30       27       29 am
  31       29       30 1
  32       30       31 ar
  33       31       32 ar
  34       32       33 ar
  35       33       34 ar
  36       34       35 ar
  37       35       30 ar
  38        8       36 ar
  39       36       37 ar
  40       37        5 ar
  41        9       38 1
  42        1       39 1
  43        1       40 1
  44        1       41 1
  45        6       42 1
  46        7       43 1
  47       10       44 1
  48       14       45 1
  49       14       46 1
  50       16       47 1
  51       17       48 1
  52       22       49 1
  53       23       50 1
  54       25       51 1
  55       25       52 1
  56       25       53 1
  57       29       54 1
  58       31       55 1
  59       32       56 1
  60       33       57 1
  61       34       58 1
  62       35       59 1
  63       36       60 1
  64       37       61 1

@<TRIPOS>MOLECULE

  61   64
SMALL
USER_CHARGES
@<TRIPOS>ATOM
   1 C1          -3.5886     2.2050     0.0436 C.3          1    LIG   0.0000
   2 O2          -2.4079     1.4161     0.0284 O.3          1    LIG   0.0000
   3 C3          -1.2821     2.0859     0.0254 C.2          1    LIG   0.0000
   4 O4          -1.2978     3.2858     0.0354 O.2          1    LIG   0.0000
   5 C5          -0.0173     1.3776     0.0102 C.ar         1    LIG   0.0000
   6 C6           1.1712     2.1003     0.0072 C.ar         1    LIG   0.0000
   7 C7           2.3824     1.4162    -0.0077 C.ar         1    LIG   0.0000
   8 C8           2.3953     0.0257    -0.0205 C.ar         1    LIG   0.0000
   9 C9           3.7237    -0.7141    -0.0372 C.3          1    LIG   0.0000
  10 N10          3.7116    -1.9053     0.8271 N.am         1    LIG   0.0000
  11 C11          4.1597    -3.1501     0.3680 C.2          1    LIG   0.0000
  12 O12          4.1427    -4.0906     1.1451 O.2          1    LIG   0.0000
  13 N13          4.6138    -3.3023    -0.9495 N.am         1    LIG   0.0000
  14 C14          5.0841    -4.6220    -1.3909 C.3          1    LIG   0.0000
  15 C15          4.4065    -4.9893    -2.7002 C.ar         1    LIG   0.0000
  16 C16          3.0243    -4.8842    -2.8126 C.ar         1    LIG   0.0000
  17 C17          2.3965    -5.2183    -4.0081 C.ar         1    LIG   0.0000
  18 C18          3.1664    -5.6566    -5.0805 C.ar         1    LIG   0.0000
  19 C19          2.5167    -6.0057    -6.3286 C.2          1    LIG   0.0000
  20 O20          3.1985    -6.4005    -7.2991 O.co2        1    LIG   0.0000
  21 O21          1.3145    -5.9149    -6.4310 O.co2        1    LIG  -1.0000
  22 C22          4.5495    -5.7657    -4.9765 C.ar         1    LIG   0.0000
  23 C23          5.1689    -5.4297    -3.7777 C.ar         1    LIG   0.0000
  24 C24          4.6061    -2.2042    -1.8234 C.2          1    LIG   0.0000
  25 C25          5.0712    -2.4098    -3.2549 C.3          1    LIG   0.0000
  26 C26          4.2062    -0.9941    -1.4562 C.2          1    LIG   0.0000
  27 C27          4.2086     0.1092    -2.3990 C.2          1    LIG   0.0000
  28 O28          3.1882     0.4421    -2.9356 O.2          1    LIG   0.0000
  29 N29          5.3758     0.7706    -2.6764 N.am         1    LIG   0.0000
  30 C30          5.4905     1.5264    -3.8496 C.ar         1    LIG   0.0000
  31 C31          6.6789     1.5001    -4.5720 C.ar         1    LIG   0.0000
  32 C32          6.7842     2.2545    -5.7357 C.ar         1    LIG   0.0000
  33 C33          5.7079     3.0243    -6.1662 C.ar         1    LIG   0.0000
  34 C34          4.5230     3.0445    -5.4377 C.ar         1    LIG   0.0000
  35 C35          4.4096     2.2933    -4.2721 C.ar         1    LIG   0.0000
  36 C36          1.2016    -0.6895    -0.0163 C.ar         1    LIG   0.0000
  37 C37         -0.0137    -0.0137    -0.0015 C.ar         1    LIG   0.0000
  38 H            4.3932    -0.0888     0.3638 H            1    LIG   0.0000
  39 H           -4.3895     1.6063     0.0447 H            1    LIG   0.0000
  40 H           -3.5977     2.7755     0.8649 H            1    LIG   0.0000
  41 H           -3.6099     2.7888    -0.7680 H            1    LIG   0.0000
  42 H            1.1552     3.1001     0.0158 H            1    LIG   0.0000
  43 H            3.2436     1.9243    -0.0092 H            1    LIG   0.0000
  44 H            3.3750    -1.8238     1.7652 H            1    LIG   0.0000
  45 H            4.8596    -5.3054    -0.6962 H            1    LIG   0.0000
  46 H            6.0748    -4.5953    -1.5244 H            1    LIG   0.0000
  47 H            2.4818    -4.5686    -2.0341 H            1    LIG   0.0000
  48 H            1.4031    -5.1443    -4.0955 H            1    LIG   0.0000
  49 H            5.0919    -6.0821    -5.7548 H            1    LIG   0.0000
  50 H            6.1623    -5.5045    -3.6899 H            1    LIG   0.0000
  51 H            5.0097    -1.5447    -3.7529 H            1    LIG   0.0000
  52 H            6.0193    -2.7277    -3.2550 H            1    LIG   0.0000
  53 H            4.4908    -3.0921    -3.6993 H            1    LIG   0.0000
  54 H            6.1459     0.7137    -2.0410 H            1    LIG   0.0000
  55 H            7.4491     0.9448    -4.2580 H            1    LIG   0.0000
  56 H            7.6337     2.2436    -6.2633 H            1    LIG   0.0000
  57 H            5.7865     3.5657    -7.0034 H            1    LIG   0.0000
  58 H            3.7525     3.5992    -5.7518 H            1    LIG   0.0000
  59 H            3.5605     2.3046    -3.7440 H            1    LIG   0.0000
  60 H            1.2177    -1.6893    -0.0240 H            1    LIG   0.0000
  61 H           -0.8750    -0.5218     0.0008 H            1    LIG   0.0000
@<TRIPOS>BOND
   1        1        2 1
   2        2        3 1
   3        3        4 2
   4        3        5 1
   5        5        6 ar
   6        6        7 ar
   7        7        8 ar
   8        8        9 1
   9        9       10 1
  10       10       11 am
  11       11       12 2
  12       11       13 am
  13       13       14 1
  14       14       15 1
  15       15       16 ar
  16       16       17 ar
  17       17       18 ar
  18       18       19 1
  19       19       20 ar
  20       19       21 ar
  21       18       22 ar
  22       22       23 ar
  23       23       15 ar
  24       13       24 1
  25       24       25 1
  26       24       26 2
  27       26        9 1
  28       26       27 1
  29       27       28 2
  30       27       29 am
  31       29       30 1
  32       30       31 ar
  33       31       32 ar
  34       32       33 ar
  35       33       34 ar
  36       34       35 ar
  37       35       30 ar
  38        8       36 ar
  39       36       37 ar
  40       37        5 ar
  41        9       38 1
  42        1       39 1
  43        1       40 1
  44        1       41 1
  45        6       42 1
  46        7       43 1
  47       10       44 1
  48       14       45 1
  49       14       46 1
  50       16       47 1
  51       17       48 1
  52       22       49 1
  53       23       50 1
  54       25       51 1
  55       25       52 1
  56       25       53 1
  57       29       54 1
  58       31       55 1
  59       32       56 1
  60       33       57 1
  61       34       58 1
  62       35       59 1
  63       36       60 1
  64       37       61 1

@<TRIPOS>MOLECULE

  61   64
SMALL
USER_CHARGES
@<TRIPOS>ATOM
   1 C1          -2.8526     3.3584     1.1427 C.3          1    LIG   0.0000
   2 O2          -1.4907     3.0351     0.9039 O.3          1    LIG   0.0000
   3 C3          -1.2821     2.0859     0.0254 C.2          1    LIG   0.0000
   4 O4          -2.1379     1.8027    -0.7666 O.2          1    LIG   0.0000
   5 C5          -0.0173     1.3776     0.0102 C.ar         1    LIG   0.0000
   6 C6           1.1712     2.1003     0.0072 C.ar         1    LIG   0.0000
   7 C7           2.3824     1.4162    -0.0077 C.ar         1    LIG   0.0000
   8 C8           2.3953     0.0257    -0.0205 C.ar         1    LIG   0.0000
   9 C9           3.7237    -0.7141    -0.0372 C.3          1    LIG   0.0000
  10 N10          3.7116    -1.9053     0.8271 N.am         1    LIG   0.0000
  11 C11          4.1597    -3.1501     0.3680 C.2          1    LIG   0.0000
  12 O12          4.1427    -4.0906     1.1451 O.2          1    LIG   0.0000
  13 N13          4.6138    -3.3023    -0.9495 N.am         1    LIG   0.0000
  14 C14          5.0841    -4.6220    -1.3909 C.3          1    LIG   0.0000
  15 C15          4.4065    -4.9893    -2.7002 C.ar         1    LIG   0.0000
  16 C16          3.0243    -4.8842    -2.8126 C.ar         1    LIG   0.0000
  17 C17          2.3965    -5.2183    -4.0081 C.ar         1    LIG   0.0000
  18 C18          3.1664    -5.6566    -5.0805 C.ar         1    LIG   0.0000
  19 C19          2.5167    -6.0057    -6.3286 C.2          1    LIG   0.0000
  20 O20          3.1985    -6.4005    -7.2991 O.co2        1    LIG   0.0000
  21 O21          1.3145    -5.9149    -6.4310 O.co2        1    LIG  -1.0000
  22 C22          4.5495    -5.7657    -4.9765 C.ar         1    LIG   0.0000
  23 C23          5.1689    -5.4297    -3.7777 C.ar         1    LIG   0.0000
  24 C24          4.6061    -2.2042    -1.8234 C.2          1    LIG   0.0000
  25 C25          5.0712    -2.4098    -3.2549 C.3          1    LIG   0.0000
  26 C26          4.2062    -0.9941    -1.4562 C.2          1    LIG   0.0000
  27 C27          4.2086     0.1092    -2.3990 C.2          1    LIG   0.0000
  28 O28          3.1882     0.4421    -2.9356 O.2          1    LIG   0.0000
  29 N29          5.3758     0.7706    -2.6764 N.am         1    LIG   0.0000
  30 C30          5.3459     2.1251    -3.0302 C.ar         1    LIG   0.0000
  31 C31          5.8440     2.5248    -4.2660 C.ar         1    LIG   0.0000
  32 C32          5.8110     3.8724    -4.6089 C.ar         1    LIG   0.0000
  33 C33          5.2835     4.8043    -3.7201 C.ar         1    LIG   0.0000
  34 C34          4.7873     4.3956    -2.4865 C.ar         1    LIG   0.0000
  35 C35          4.8172     3.0497    -2.1354 C.ar         1    LIG   0.0000
  36 C36          1.2016    -0.6895    -0.0163 C.ar         1    LIG   0.0000
  37 C37         -0.0137    -0.0137    -0.0015 C.ar         1    LIG   0.0000
  38 H            4.3932    -0.0888     0.3638 H            1    LIG   0.0000
  39 H           -2.9074     4.0888     1.8236 H            1    LIG   0.0000
  40 H           -3.2769     3.6646     0.2906 H            1    LIG   0.0000
  41 H           -3.3327     2.5495     1.4822 H            1    LIG   0.0000
  42 H            1.1552     3.1001     0.0158 H            1    LIG   0.0000
  43 H            3.2436     1.9243    -0.0092 H            1    LIG   0.0000
  44 H            3.3750    -1.8238     1.7652 H            1    LIG   0.0000
  45 H            4.8596    -5.3054    -0.6962 H            1    LIG   0.0000
  46 H            6.0748    -4.5953    -1.5244 H            1    LIG   0.0000
  47 H            2.4818    -4.5686    -2.0341 H            1    LIG   0.0000
  48 H            1.4031    -5.1443    -4.0955 H            1    LIG   0.0000
  49 H            5.0919    -6.0821    -5.7548 H            1    LIG   0.0000
  50 H            6.1623    -5.5045    -3.6899 H            1    LIG   0.0000
  51 H            5.0097    -1.5447    -3.7529 H            1    LIG   0.0000
  52 H            6.0193    -2.7277    -3.2550 H            1    LIG   0.0000
  53 H            4.4908    -3.0921    -3.6993 H            1    LIG   0.0000
  54 H            6.2492     0.2861    -2.6261 H            1    LIG   0.0000
  55 H            6.2217     1.8508    -4.9008 H            1    LIG   0.0000
  56 H            6.1664     4.1717    -5.4944 H            1    LIG   0.0000
  57 H            5.2611     5.7725    -3.9695 H            1    LIG   0.0000
  58 H            4.4090     5.0694    -1.8518 H            1    LIG   0.0000
  59 H            4.4626     2.7502    -1.2497 H            1    LIG   0.0000
  60 H            1.2177    -1.6893    -0.0240 H            1    LIG   0.0000
  61 H           -0.8750    -0.5218     0.0008 H            1    LIG   0.0000
@<TRIPOS>BOND
   1        1        2 1
   2        2        3 1
   3        3        4 2
   4        3        5 1
   5        5        6 ar
   6        6        7 ar
   7        7        8 ar
   8        8        9 1
   9        9       10 1
  10       10       11 am
  11       11       12 2
  12       11       13 am
  13       13       14 1
  14       14       15 1
  15       15       16 ar
  16       16       17 ar
  17       17       18 ar
  18       18       19 1
  19       19       20 ar
  20       19       21 ar
  21       18       22 ar
  22       22       23 ar
  23       23       15 ar
  24       13       24 1
  25       24       25 1
  26       24       26 2
  27       26        9 1
  28       26       27 1
  29       27       28 2
  30       27       29 am
  31       29       30 1
  32       30       31 ar
  33       31       32 ar
  34       32       33 ar
  35       33       34 ar
  36       34       35 ar
  37       35       30 ar
  38        8       36 ar
  39       36       37 ar
  40       37        5 ar
  41        9       38 1
  42        1       39 1
  43        1       40 1
  44        1       41 1
  45        6       42 1
  46        7       43 1
  47       10       44 1
  48       14       45 1
  49       14       46 1
  50       16       47 1
  51       17       48 1
  52       22       49 1
  53       23       50 1
  54       25       51 1
  55       25       52 1
  56       25       53 1
  57       29       54 1
  58       31       55 1
  59       32       56 1
  60       33       57 1
  61       34       58 1
  62       35       59 1
  63       36       60 1
  64       37       61 1

@<TRIPOS>MOLECULE

  61   64
SMALL
USER_CHARGES
@<TRIPOS>ATOM
   1 C1          -3.3220     2.6665    -0.8889 C.3          1    LIG   0.0000
   2 O2          -2.2164     1.7768    -0.8392 O.3          1    LIG   0.0000
   3 C3          -1.2821     2.0859     0.0254 C.2          1    LIG   0.0000
   4 O4          -1.4732     2.9554     0.8301 O.2          1    LIG   0.0000
   5 C5          -0.0173     1.3776     0.0102 C.ar         1    LIG   0.0000
   6 C6           1.1712     2.1003     0.0072 C.ar         1    LIG   0.0000
   7 C7           2.3824     1.4162    -0.0077 C.ar         1    LIG   0.0000
   8 C8           2.3953     0.0257    -0.0205 C.ar         1    LIG   0.0000
   9 C9           3.7237    -0.7141    -0.0372 C.3          1    LIG   0.0000
  10 N10          3.7116    -1.9053     0.8271 N.am         1    LIG   0.0000
  11 C11          4.1597    -3.1501     0.3680 C.2          1    LIG   0.0000
  12 O12          4.1427    -4.0906     1.1451 O.2          1    LIG   0.0000
  13 N13          4.6138    -3.3023    -0.9495 N.am         1    LIG   0.0000
  14 C14          5.0841    -4.6220    -1.3909 C.3          1    LIG   0.0000
  15 C15          4.4065    -4.9893    -2.7002 C.ar         1    LIG   0.0000
  16 C16          3.0243    -4.8842    -2.8126 C.ar         1    LIG   0.0000
  17 C17          2.3965    -5.2183    -4.0081 C.ar         1    LIG   0.0000
  18 C18          3.1664    -5.6566    -5.0805 C.ar         1    LIG   0.0000
  19 C19          2.5167    -6.0057    -6.3286 C.2          1    LIG   0.0000
  20 O20          3.1042    -6.7353    -7.1563 O.co2        1    LIG   0.0000
  21 O21          1.4058    -5.5908    -6.5692 O.co2        1    LIG  -1.0000
  22 C22          4.5495    -5.7657    -4.9765 C.ar         1    LIG   0.0000
  23 C23          5.1689    -5.4297    -3.7777 C.ar         1    LIG   0.0000
  24 C24          4.6061    -2.2042    -1.8234 C.2          1    LIG   0.0000
  25 C25          5.0712    -2.4098    -3.2549 C.3          1    LIG   0.0000
  26 C26          4.2062    -0.9941    -1.4562 C.2          1    LIG   0.0000
  27 C27          4.2086     0.1092    -2.3990 C.2          1    LIG   0.0000
  28 O28          5.1038     0.9081    -2.3853 O.2          1    LIG   0.0000
  29 N29          3.1888     0.2385    -3.3046 N.am         1    LIG   0.0000
  30 C30          2.8121     1.5086    -3.7581 C.ar         1    LIG   0.0000
  31 C31          2.4853     1.6923    -5.0977 C.ar         1    LIG   0.0000
  32 C32          2.1130     2.9575    -5.5395 C.ar         1    LIG   0.0000
  33 C33          2.0699     4.0227    -4.6451 C.ar         1    LIG   0.0000
  34 C34          2.3980     3.8298    -3.3071 C.ar         1    LIG   0.0000
  35 C35          2.7722     2.5677    -2.8570 C.ar         1    LIG   0.0000
  36 C36          1.2016    -0.6895    -0.0163 C.ar         1    LIG   0.0000
  37 C37         -0.0137    -0.0137    -0.0015 C.ar         1    LIG   0.0000
  38 H            4.3932    -0.0888     0.3638 H            1    LIG   0.0000
  39 H           -3.9764     2.3471    -1.5743 H            1    LIG   0.0000
  40 H           -3.7657     2.6972     0.0068 H            1    LIG   0.0000
  41 H           -3.0025     3.5818    -1.1341 H            1    LIG   0.0000
  42 H            1.1552     3.1001     0.0158 H            1    LIG   0.0000
  43 H            3.2436     1.9243    -0.0092 H            1    LIG   0.0000
  44 H            3.3750    -1.8238     1.7652 H            1    LIG   0.0000
  45 H            4.8596    -5.3054    -0.6962 H            1    LIG   0.0000
  46 H            6.0748    -4.5953    -1.5244 H            1    LIG   0.0000
  47 H            2.4818    -4.5686    -2.0341 H            1    LIG   0.0000
  48 H            1.4031    -5.1443    -4.0955 H            1    LIG   0.0000
  49 H            5.0919    -6.0821    -5.7548 H            1    LIG   0.0000
  50 H            6.1623    -5.5045    -3.6899 H            1    LIG   0.0000
  51 H            5.0097    -1.5447    -3.7529 H            1    LIG   0.0000
  52 H            6.0193    -2.7277    -3.2550 H            1    LIG   0.0000
  53 H            4.4908    -3.0921    -3.6993 H            1    LIG   0.0000
  54 H            2.7135    -0.5741    -3.6418 H            1    LIG   0.0000
  55 H            2.5178     0.9232    -5.7360 H            1    LIG   0.0000
  56 H            1.8761     3.1017    -6.5003 H            1    LIG   0.0000
  57 H            1.8018     4.9311    -4.9657 H            1    LIG   0.0000
  58 H            2.3649     4.5987    -2.6686 H            1    LIG   0.0000
  59 H            3.0098     2.4234    -1.8964 H            1    LIG   0.0000
  60 H            1.2177    -1.6893    -0.0240 H            1    LIG   0.0000
  61 H           -0.8750    -0.5218     0.0008 H            1    LIG   0.0000
@<TRIPOS>BOND
   1        1        2 1
   2        2        3 1
   3        3        4 2
   4        3        5 1
   5        5        6 ar
   6        6        7 ar
   7        7        8 ar
   8        8        9 1
   9        9       10 1
  10       10       11 am
  11       11       12 2
  12       11       13 am
  13       13       14 1
  14       14       15 1
  15       15       16 ar
  16       16       17 ar
  17       17       18 ar
  18       18       19 1
  19       19       20 ar
  20       19       21 ar
  21       18       22 ar
  22       22       23 ar
  23       23       15 ar
  24       13       24 1
  25       24       25 1
  26       24       26 2
  27       26        9 1
  28       26       27 1
  29       27       28 2
  30       27       29 am
  31       29       30 1
  32       30       31 ar
  33       31       32 ar
  34       32       33 ar
  35       33       34 ar
  36       34       35 ar
  37       35       30 ar
  38        8       36 ar
  39       36       37 ar
  40       37        5 ar
  41        9       38 1
  42        1       39 1
  43        1       40 1
  44        1       41 1
  45        6       42 1
  46        7       43 1
  47       10       44 1
  48       14       45 1
  49       14       46 1
  50       16       47 1
  51       17       48 1
  52       22       49 1
  53       23       50 1
  54       25       51 1
  55       25       52 1
  56       25       53 1
  57       29       54 1
  58       31       55 1
  59       32       56 1
  60       33       57 1
  61       34       58 1
  62       35       59 1
  63       36       60 1
  64       37       61 1

