@<TRIPOS>MOLECULE
*****
 61 64 0 0 0
SMALL
USER_CHARGES

@<TRIPOS>ATOM
      1 C1         -2.5887    3.9902    0.0507 C.3     1  LIG1        0.0000
      2 O2         -1.2992    3.3957    0.0363 O.3     1  LIG1        0.0000
      3 C3         -1.2821    2.0859    0.0254 C.2     1  LIG1        0.0000
      4 O4         -2.3134    1.4724    0.0281 O.2     1  LIG1        0.0000
      5 C5         -0.0173    1.3776    0.0102 C.3     1  LIG1        0.0000
      6 C6          1.1712    2.1003    0.0072 C.3     1  LIG1        0.0000
      7 C7          2.3824    1.4162   -0.0077 C.3     1  LIG1        0.0000
      8 C8          2.3953    0.0257   -0.0205 C.3     1  LIG1        0.0000
      9 C9          3.7237   -0.7141   -0.0372 C.3     1  LIG1        0.0000
     10 N10         3.7116   -1.9053    0.8271 N.am    1  LIG1        0.0000
     11 C11         4.1597   -3.1501    0.3680 C.2     1  LIG1        0.0000
     12 O12         4.1427   -4.0906    1.1451 O.2     1  LIG1        0.0000
     13 N13         4.6138   -3.3023   -0.9495 N.am    1  LIG1        0.0000
     14 C14         5.0841   -4.6220   -1.3909 C.3     1  LIG1        0.0000
     15 C15         3.9860   -5.3125   -2.1820 C.3     1  LIG1        0.0000
     16 C16         2.7695   -4.6676   -2.3774 C.3     1  LIG1        0.0000
     17 C17         1.7593   -5.2929   -3.1008 C.3     1  LIG1        0.0000
     18 C18         1.9826   -6.5637   -3.6206 C.3     1  LIG1        0.0000
     19 C19         0.9329   -7.2195   -4.3755 C.3     1  LIG1        0.0000
     20 O20         1.1225   -8.3614   -4.8475 O.2     1  LIG1        0.0000
     21 O21        -0.1267   -6.6616   -4.5487 O.2     1  LIG1       -1.0000
     22 C22         3.1961   -7.2167   -3.4290 C.3     1  LIG1        0.0000
     23 C23         4.2006   -6.5841   -2.7045 C.3     1  LIG1        0.0000
     24 C24         4.6061   -2.2042   -1.8234 C.2     1  LIG1        0.0000
     25 C25         5.0712   -2.4098   -3.2549 C.3     1  LIG1        0.0000
     26 C26         4.2062   -0.9941   -1.4562 C.2     1  LIG1        0.0000
     27 C27         4.2086    0.1092   -2.3990 C.2     1  LIG1        0.0000
     28 O28         5.1900    0.3401   -3.0498 O.2     1  LIG1        0.0000
     29 N29         3.0904    0.8870   -2.5460 N.am    1  LIG1        0.0000
     30 C30         2.9206    1.6573   -3.7030 C.3     1  LIG1        0.0000
     31 C31         1.8142    1.4408   -4.5177 C.3     1  LIG1        0.0000
     32 C32         1.6538    2.2101   -5.6654 C.3     1  LIG1        0.0000
     33 C33         2.5942    3.1839   -5.9879 C.3     1  LIG1        0.0000
     34 C34         3.6975    3.3937   -5.1672 C.3     1  LIG1        0.0000
     35 C35         3.8658    2.6282   -4.0177 C.3     1  LIG1        0.0000
     36 C36         1.2016   -0.6895   -0.0163 C.3     1  LIG1        0.0000
     37 C37        -0.0137   -0.0137   -0.0015 C.3     1  LIG1        0.0000
     38 H           4.3932   -0.0888    0.3638 H       1  LIG1        0.0000
     39 H          -2.4966    4.9859    0.0582 H       1  LIG1        0.0000
     40 H          -3.0949    3.7083   -0.7643 H       1  LIG1        0.0000
     41 H          -3.0827    3.6950    0.8686 H       1  LIG1        0.0000
     42 H           1.1552    3.1001    0.0158 H       1  LIG1        0.0000
     43 H           3.2436    1.9243   -0.0092 H       1  LIG1        0.0000
     44 H           3.3750   -1.8238    1.7652 H       1  LIG1        0.0000
     45 H           5.3188   -5.1765   -0.5925 H       1  LIG1        0.0000
     46 H           5.8924   -4.5115   -1.9692 H       1  LIG1        0.0000
     47 H           2.6210   -3.7543   -1.9980 H       1  LIG1        0.0000
     48 H           0.8825   -4.8342   -3.2454 H       1  LIG1        0.0000
     49 H           3.3443   -8.1302   -3.8078 H       1  LIG1        0.0000
     50 H           5.0770   -7.0431   -2.5591 H       1  LIG1        0.0000
     51 H           5.0097   -1.5447   -3.7529 H       1  LIG1        0.0000
     52 H           6.0193   -2.7277   -3.2550 H       1  LIG1        0.0000
     53 H           4.4908   -3.0921   -3.6993 H       1  LIG1        0.0000
     54 H           2.3956    0.9047   -1.8271 H       1  LIG1        0.0000
     55 H           1.1414    0.7399   -4.2810 H       1  LIG1        0.0000
     56 H           0.8625    2.0634   -6.2589 H       1  LIG1        0.0000
     57 H           2.4762    3.7354   -6.8137 H       1  LIG1        0.0000
     58 H           4.3700    4.0951   -5.4034 H       1  LIG1        0.0000
     59 H           4.6574    2.7742   -3.4244 H       1  LIG1        0.0000
     60 H           1.2177   -1.6893   -0.0240 H       1  LIG1        0.0000
     61 H          -0.8750   -0.5218    0.0008 H       1  LIG1        0.0000
@<TRIPOS>UNITY_ATOM_ATTR
20 1
charge -1
@<TRIPOS>BOND
     1     1     2    1
     2     2     3    1
     3     3     4    2
     4     3     5    1
     5     5     6   ar
     6     6     7   ar
     7     7     8   ar
     8     8     9    1
     9     9    10    1
    10    10    11   am
    11    11    12    2
    12    11    13   am
    13    13    14    1
    14    14    15    1
    15    15    16   ar
    16    16    17   ar
    17    17    18   ar
    18    18    19    1
    19    19    20    1
    20    19    21    2
    21    18    22   ar
    22    22    23   ar
    23    23    15   ar
    24    13    24    1
    25    24    25    1
    26    24    26    2
    27    26     9    1
    28    26    27    1
    29    27    28    2
    30    27    29   am
    31    29    30    1
    32    30    31   ar
    33    31    32   ar
    34    32    33   ar
    35    33    34   ar
    36    34    35   ar
    37    35    30   ar
    38     8    36   ar
    39    36    37   ar
    40    37     5   ar
    41     9    38    1
    42     1    39    1
    43     1    40    1
    44     1    41    1
    45     6    42    1
    46     7    43    1
    47    10    44    1
    48    14    45    1
    49    14    46    1
    50    16    47    1
    51    17    48    1
    52    22    49    1
    53    23    50    1
    54    25    51    1
    55    25    52    1
    56    25    53    1
    57    29    54    1
    58    31    55    1
    59    32    56    1
    60    33    57    1
    61    34    58    1
    62    35    59    1
    63    36    60    1
    64    37    61    1
