@<TRIPOS>MOLECULE
*****
 61 64 0 0 0
SMALL
USER_CHARGES

@<TRIPOS>ATOM
      1 C1         -3.5886    2.2050    0.0436 C.3     1  LIG1        0.0000
      2 O2         -2.4079    1.4161    0.0284 O.3     1  LIG1        0.0000
      3 C3         -1.2821    2.0859    0.0254 C.2     1  LIG1        0.0000
      4 O4         -1.2978    3.2858    0.0354 O.2     1  LIG1        0.0000
      5 C5         -0.0173    1.3776    0.0102 C.3     1  LIG1        0.0000
      6 C6          1.1712    2.1003    0.0072 C.3     1  LIG1        0.0000
      7 C7          2.3824    1.4162   -0.0077 C.3     1  LIG1        0.0000
      8 C8          2.3953    0.0257   -0.0205 C.3     1  LIG1        0.0000
      9 C9          3.7237   -0.7141   -0.0372 C.3     1  LIG1        0.0000
     10 N10         3.7116   -1.9053    0.8271 N.am    1  LIG1        0.0000
     11 C11         4.1597   -3.1501    0.3680 C.2     1  LIG1        0.0000
     12 O12         4.1427   -4.0906    1.1451 O.2     1  LIG1        0.0000
     13 N13         4.6138   -3.3023   -0.9495 N.am    1  LIG1        0.0000
     14 C14         5.0841   -4.6220   -1.3909 C.3     1  LIG1        0.0000
     15 C15         4.4065   -4.9893   -2.7002 C.3     1  LIG1        0.0000
     16 C16         3.0243   -4.8842   -2.8126 C.3     1  LIG1        0.0000
     17 C17         2.3965   -5.2183   -4.0081 C.3     1  LIG1        0.0000
     18 C18         3.1664   -5.6566   -5.0805 C.3     1  LIG1        0.0000
     19 C19         2.5167   -6.0057   -6.3286 C.3     1  LIG1        0.0000
     20 O20         3.1985   -6.4005   -7.2991 O.2     1  LIG1        0.0000
     21 O21         1.3145   -5.9149   -6.4310 O.2     1  LIG1       -1.0000
     22 C22         4.5495   -5.7657   -4.9765 C.3     1  LIG1        0.0000
     23 C23         5.1689   -5.4297   -3.7777 C.3     1  LIG1        0.0000
     24 C24         4.6061   -2.2042   -1.8234 C.2     1  LIG1        0.0000
     25 C25         5.0712   -2.4098   -3.2549 C.3     1  LIG1        0.0000
     26 C26         4.2062   -0.9941   -1.4562 C.2     1  LIG1        0.0000
     27 C27         4.2086    0.1092   -2.3990 C.2     1  LIG1        0.0000
     28 O28         3.1882    0.4421   -2.9356 O.2     1  LIG1        0.0000
     29 N29         5.3758    0.7706   -2.6764 N.am    1  LIG1        0.0000
     30 C30         5.4905    1.5264   -3.8496 C.3     1  LIG1        0.0000
     31 C31         6.6789    1.5001   -4.5720 C.3     1  LIG1        0.0000
     32 C32         6.7842    2.2545   -5.7357 C.3     1  LIG1        0.0000
     33 C33         5.7079    3.0243   -6.1662 C.3     1  LIG1        0.0000
     34 C34         4.5230    3.0445   -5.4377 C.3     1  LIG1        0.0000
     35 C35         4.4096    2.2933   -4.2721 C.3     1  LIG1        0.0000
     36 C36         1.2016   -0.6895   -0.0163 C.3     1  LIG1        0.0000
     37 C37        -0.0137   -0.0137   -0.0015 C.3     1  LIG1        0.0000
     38 H           4.3932   -0.0888    0.3638 H       1  LIG1        0.0000
     39 H          -4.3895    1.6063    0.0447 H       1  LIG1        0.0000
     40 H          -3.5977    2.7755    0.8649 H       1  LIG1        0.0000
     41 H          -3.6099    2.7888   -0.7680 H       1  LIG1        0.0000
     42 H           1.1552    3.1001    0.0158 H       1  LIG1        0.0000
     43 H           3.2436    1.9243   -0.0092 H       1  LIG1        0.0000
     44 H           3.3750   -1.8238    1.7652 H       1  LIG1        0.0000
     45 H           4.8596   -5.3054   -0.6962 H       1  LIG1        0.0000
     46 H           6.0748   -4.5953   -1.5244 H       1  LIG1        0.0000
     47 H           2.4818   -4.5686   -2.0341 H       1  LIG1        0.0000
     48 H           1.4031   -5.1443   -4.0955 H       1  LIG1        0.0000
     49 H           5.0919   -6.0821   -5.7548 H       1  LIG1        0.0000
     50 H           6.1623   -5.5045   -3.6899 H       1  LIG1        0.0000
     51 H           5.0097   -1.5447   -3.7529 H       1  LIG1        0.0000
     52 H           6.0193   -2.7277   -3.2550 H       1  LIG1        0.0000
     53 H           4.4908   -3.0921   -3.6993 H       1  LIG1        0.0000
     54 H           6.1459    0.7137   -2.0410 H       1  LIG1        0.0000
     55 H           7.4491    0.9448   -4.2580 H       1  LIG1        0.0000
     56 H           7.6337    2.2436   -6.2633 H       1  LIG1        0.0000
     57 H           5.7865    3.5657   -7.0034 H       1  LIG1        0.0000
     58 H           3.7525    3.5992   -5.7518 H       1  LIG1        0.0000
     59 H           3.5605    2.3046   -3.7440 H       1  LIG1        0.0000
     60 H           1.2177   -1.6893   -0.0240 H       1  LIG1        0.0000
     61 H          -0.8750   -0.5218    0.0008 H       1  LIG1        0.0000
@<TRIPOS>UNITY_ATOM_ATTR
20 1
charge -1
@<TRIPOS>BOND
     1     1     2    1
     2     2     3    1
     3     3     4    2
     4     3     5    1
     5     5     6   ar
     6     6     7   ar
     7     7     8   ar
     8     8     9    1
     9     9    10    1
    10    10    11   am
    11    11    12    2
    12    11    13   am
    13    13    14    1
    14    14    15    1
    15    15    16   ar
    16    16    17   ar
    17    17    18   ar
    18    18    19    1
    19    19    20    1
    20    19    21    2
    21    18    22   ar
    22    22    23   ar
    23    23    15   ar
    24    13    24    1
    25    24    25    1
    26    24    26    2
    27    26     9    1
    28    26    27    1
    29    27    28    2
    30    27    29   am
    31    29    30    1
    32    30    31   ar
    33    31    32   ar
    34    32    33   ar
    35    33    34   ar
    36    34    35   ar
    37    35    30   ar
    38     8    36   ar
    39    36    37   ar
    40    37     5   ar
    41     9    38    1
    42     1    39    1
    43     1    40    1
    44     1    41    1
    45     6    42    1
    46     7    43    1
    47    10    44    1
    48    14    45    1
    49    14    46    1
    50    16    47    1
    51    17    48    1
    52    22    49    1
    53    23    50    1
    54    25    51    1
    55    25    52    1
    56    25    53    1
    57    29    54    1
    58    31    55    1
    59    32    56    1
    60    33    57    1
    61    34    58    1
    62    35    59    1
    63    36    60    1
    64    37    61    1
