@<TRIPOS>MOLECULE
*****
 61 64 0 0 0
SMALL
USER_CHARGES

@<TRIPOS>ATOM
      1 C1         -3.5886    2.2050    0.0436 C.3     1  LIG1        0.0000
      2 O2         -2.4079    1.4161    0.0284 O.3     1  LIG1        0.0000
      3 C3         -1.2821    2.0859    0.0254 C.2     1  LIG1        0.0000
      4 O4         -1.2978    3.2858    0.0354 O.2     1  LIG1        0.0000
      5 C5         -0.0173    1.3776    0.0102 C.3     1  LIG1        0.0000
      6 C6          1.1712    2.1003    0.0072 C.3     1  LIG1        0.0000
      7 C7          2.3824    1.4162   -0.0077 C.3     1  LIG1        0.0000
      8 C8          2.3953    0.0257   -0.0205 C.3     1  LIG1        0.0000
      9 C9          3.7237   -0.7141   -0.0372 C.3     1  LIG1        0.0000
     10 N10         3.7116   -1.9053    0.8271 N.am    1  LIG1        0.0000
     11 C11         4.1597   -3.1501    0.3680 C.2     1  LIG1        0.0000
     12 O12         4.1427   -4.0906    1.1451 O.2     1  LIG1        0.0000
     13 N13         4.6138   -3.3023   -0.9495 N.am    1  LIG1        0.0000
     14 C14         5.0841   -4.6220   -1.3909 C.3     1  LIG1        0.0000
     15 C15         3.9860   -5.3125   -2.1820 C.3     1  LIG1        0.0000
     16 C16         2.7012   -5.3866   -1.6550 C.3     1  LIG1        0.0000
     17 C17         1.6903   -6.0168   -2.3732 C.3     1  LIG1        0.0000
     18 C18         1.9824   -6.5683   -3.6164 C.3     1  LIG1        0.0000
     19 C19         0.9322   -7.2259   -4.3690 C.3     1  LIG1        0.0000
     20 O20         1.1831   -7.7247   -5.4873 O.2     1  LIG1        0.0000
     21 O21        -0.1873   -7.2918   -3.9145 O.2     1  LIG1       -1.0000
     22 C22         3.2652   -6.4996   -4.1507 C.3     1  LIG1        0.0000
     23 C23         4.2698   -5.8678   -3.4259 C.3     1  LIG1        0.0000
     24 C24         4.6061   -2.2042   -1.8234 C.2     1  LIG1        0.0000
     25 C25         5.0712   -2.4098   -3.2549 C.3     1  LIG1        0.0000
     26 C26         4.2062   -0.9941   -1.4562 C.2     1  LIG1        0.0000
     27 C27         4.2086    0.1092   -2.3990 C.2     1  LIG1        0.0000
     28 O28         3.6999   -0.0224   -3.4778 O.2     1  LIG1        0.0000
     29 N29         4.7917    1.3009   -2.0573 N.am    1  LIG1        0.0000
     30 C30         4.7940    2.3654   -2.9670 C.3     1  LIG1        0.0000
     31 C31         5.9264    3.1639   -3.0892 C.3     1  LIG1        0.0000
     32 C32         5.9196    4.2196   -3.9948 C.3     1  LIG1        0.0000
     33 C33         4.7886    4.4676   -4.7667 C.3     1  LIG1        0.0000
     34 C34         3.6606    3.6637   -4.6381 C.3     1  LIG1        0.0000
     35 C35         3.6588    2.6061   -3.7342 C.3     1  LIG1        0.0000
     36 C36         1.2016   -0.6895   -0.0163 C.3     1  LIG1        0.0000
     37 C37        -0.0137   -0.0137   -0.0015 C.3     1  LIG1        0.0000
     38 H           4.3932   -0.0888    0.3638 H       1  LIG1        0.0000
     39 H          -4.3895    1.6063    0.0447 H       1  LIG1        0.0000
     40 H          -3.5977    2.7755    0.8649 H       1  LIG1        0.0000
     41 H          -3.6099    2.7888   -0.7680 H       1  LIG1        0.0000
     42 H           1.1552    3.1001    0.0158 H       1  LIG1        0.0000
     43 H           3.2436    1.9243   -0.0092 H       1  LIG1        0.0000
     44 H           3.3750   -1.8238    1.7652 H       1  LIG1        0.0000
     45 H           5.3188   -5.1765   -0.5925 H       1  LIG1        0.0000
     46 H           5.8924   -4.5115   -1.9692 H       1  LIG1        0.0000
     47 H           2.5040   -4.9869   -0.7598 H       1  LIG1        0.0000
     48 H           0.7642   -6.0728   -2.0001 H       1  LIG1        0.0000
     49 H           3.4625   -6.9000   -5.0456 H       1  LIG1        0.0000
     50 H           5.1961   -5.8125   -3.7986 H       1  LIG1        0.0000
     51 H           5.0097   -1.5447   -3.7529 H       1  LIG1        0.0000
     52 H           6.0193   -2.7277   -3.2550 H       1  LIG1        0.0000
     53 H           4.4908   -3.0921   -3.6993 H       1  LIG1        0.0000
     54 H           5.2156    1.4105   -1.1583 H       1  LIG1        0.0000
     55 H           6.7364    2.9810   -2.5321 H       1  LIG1        0.0000
     56 H           6.7277    4.8007   -4.0912 H       1  LIG1        0.0000
     57 H           4.7867    5.2273   -5.4169 H       1  LIG1        0.0000
     58 H           2.8507    3.8461   -5.1956 H       1  LIG1        0.0000
     59 H           2.8505    2.0254   -3.6371 H       1  LIG1        0.0000
     60 H           1.2177   -1.6893   -0.0240 H       1  LIG1        0.0000
     61 H          -0.8750   -0.5218    0.0008 H       1  LIG1        0.0000
@<TRIPOS>UNITY_ATOM_ATTR
20 1
charge -1
@<TRIPOS>BOND
     1     1     2    1
     2     2     3    1
     3     3     4    2
     4     3     5    1
     5     5     6   ar
     6     6     7   ar
     7     7     8   ar
     8     8     9    1
     9     9    10    1
    10    10    11   am
    11    11    12    2
    12    11    13   am
    13    13    14    1
    14    14    15    1
    15    15    16   ar
    16    16    17   ar
    17    17    18   ar
    18    18    19    1
    19    19    20    1
    20    19    21    2
    21    18    22   ar
    22    22    23   ar
    23    23    15   ar
    24    13    24    1
    25    24    25    1
    26    24    26    2
    27    26     9    1
    28    26    27    1
    29    27    28    2
    30    27    29   am
    31    29    30    1
    32    30    31   ar
    33    31    32   ar
    34    32    33   ar
    35    33    34   ar
    36    34    35   ar
    37    35    30   ar
    38     8    36   ar
    39    36    37   ar
    40    37     5   ar
    41     9    38    1
    42     1    39    1
    43     1    40    1
    44     1    41    1
    45     6    42    1
    46     7    43    1
    47    10    44    1
    48    14    45    1
    49    14    46    1
    50    16    47    1
    51    17    48    1
    52    22    49    1
    53    23    50    1
    54    25    51    1
    55    25    52    1
    56    25    53    1
    57    29    54    1
    58    31    55    1
    59    32    56    1
    60    33    57    1
    61    34    58    1
    62    35    59    1
    63    36    60    1
    64    37    61    1
