@<TRIPOS>MOLECULE

  26   27
SMALL
USER_CHARGES
@<TRIPOS>ATOM
   1 C1           2.9121     4.2213     0.0091 C.3          1    LIG   0.0000
   2 S2           1.1461     3.8243     0.0115 S.3          1    LIG   0.0000
   3 C3           1.1482     2.0842     0.0026 C.ar         1    LIG   0.0000
   4 C4           2.3759     1.4310    -0.0038 C.ar         1    LIG   0.0000
   5 C5           2.3898     0.0405    -0.0116 C.ar         1    LIG   0.0000
   6 C6           1.1929    -0.6667    -0.0128 C.ar         1    LIG   0.0000
   7 C7           1.2339    -2.1191    -0.0202 C.ar         1    LIG   0.0000
   8 C8           1.2549    -2.8260     1.1777 C.ar         1    LIG   0.0000
   9 N9           1.2902    -4.1665     1.1755 N.ar         1    LIG   0.0000
  10 C10          1.3043    -4.8754     0.0349 C.ar         1    LIG   0.0000
  11 F11          1.3344    -6.2095     0.0214 F            1    LIG   0.0000
  12 C12          1.2847    -4.1662    -1.1618 C.ar         1    LIG   0.0000
  13 N13          1.2517    -2.8252    -1.1618 N.ar         1    LIG   0.0000
  14 C14         -0.0070     0.0393    -0.0057 C.ar         1    LIG   0.0000
  15 C15         -1.3230    -0.7216    -0.0076 C.3          1    LIG   0.0000
  16 N16          0.0042     1.3818     0.0017 N.ar         1    LIG   0.0000
  17 H            3.0305     5.2143     0.0139 H            1    LIG   0.0000
  18 H            3.3427     3.8303     0.8226 H            1    LIG   0.0000
  19 H            3.3386     3.8387    -0.8104 H            1    LIG   0.0000
  20 H            3.2305     1.9503    -0.0029 H            1    LIG   0.0000
  21 H            3.2608    -0.4507    -0.0163 H            1    LIG   0.0000
  22 H            1.2437    -2.3310     2.0465 H            1    LIG   0.0000
  23 H            1.2954    -4.6611    -2.0307 H            1    LIG   0.0000
  24 H           -1.1396    -1.7047    -0.0133 H            1    LIG   0.0000
  25 H           -1.8461    -0.4849     0.8112 H            1    LIG   0.0000
  26 H           -1.8490    -0.4759    -0.8218 H            1    LIG   0.0000
@<TRIPOS>BOND
   1        1        2 1
   2        2        3 1
   3        3        4 ar
   4        4        5 ar
   5        5        6 ar
   6        6        7 1
   7        7        8 ar
   8        8        9 ar
   9        9       10 ar
  10       10       11 1
  11       10       12 ar
  12       12       13 ar
  13       13        7 ar
  14        6       14 ar
  15       14       15 1
  16       14       16 ar
  17       16        3 ar
  18        1       17 1
  19        1       18 1
  20        1       19 1
  21        4       20 1
  22        5       21 1
  23        8       22 1
  24       12       23 1
  25       15       24 1
  26       15       25 1
  27       15       26 1

@<TRIPOS>MOLECULE

  26   27
SMALL
USER_CHARGES
@<TRIPOS>ATOM
   1 C1           2.9121     4.2213     0.0091 C.3          1    LIG   0.0000
   2 S2           1.1461     3.8243     0.0115 S.3          1    LIG   0.0000
   3 C3           1.1482     2.0842     0.0026 C.ar         1    LIG   0.0000
   4 C4           2.3759     1.4310    -0.0038 C.ar         1    LIG   0.0000
   5 C5           2.3898     0.0405    -0.0116 C.ar         1    LIG   0.0000
   6 C6           1.1929    -0.6667    -0.0128 C.ar         1    LIG   0.0000
   7 C7           1.2339    -2.1191    -0.0202 C.ar         1    LIG   0.0000
   8 C8           1.2524    -2.8137    -1.2253 C.ar         1    LIG   0.0000
   9 N9           1.2929    -4.1540    -1.2370 N.ar         1    LIG   0.0000
  10 C10          1.3191    -4.8742    -0.1037 C.ar         1    LIG   0.0000
  11 F11          1.3643    -6.2080    -0.1039 F            1    LIG   0.0000
  12 C12          1.2990    -4.1774     1.1002 C.ar         1    LIG   0.0000
  13 N13          1.2563    -2.8368     1.1140 N.ar         1    LIG   0.0000
  14 C14         -0.0070     0.0393    -0.0057 C.ar         1    LIG   0.0000
  15 C15         -1.3230    -0.7216    -0.0076 C.3          1    LIG   0.0000
  16 N16          0.0042     1.3818     0.0017 N.ar         1    LIG   0.0000
  17 H            3.0305     5.2143     0.0139 H            1    LIG   0.0000
  18 H            3.3427     3.8303     0.8226 H            1    LIG   0.0000
  19 H            3.3386     3.8387    -0.8104 H            1    LIG   0.0000
  20 H            3.2305     1.9503    -0.0029 H            1    LIG   0.0000
  21 H            3.2608    -0.4507    -0.0163 H            1    LIG   0.0000
  22 H            1.2354    -2.3100    -2.0890 H            1    LIG   0.0000
  23 H            1.3165    -4.6810     1.9640 H            1    LIG   0.0000
  24 H           -1.1396    -1.7047    -0.0133 H            1    LIG   0.0000
  25 H           -1.8461    -0.4849     0.8112 H            1    LIG   0.0000
  26 H           -1.8490    -0.4759    -0.8218 H            1    LIG   0.0000
@<TRIPOS>BOND
   1        1        2 1
   2        2        3 1
   3        3        4 ar
   4        4        5 ar
   5        5        6 ar
   6        6        7 1
   7        7        8 ar
   8        8        9 ar
   9        9       10 ar
  10       10       11 1
  11       10       12 ar
  12       12       13 ar
  13       13        7 ar
  14        6       14 ar
  15       14       15 1
  16       14       16 ar
  17       16        3 ar
  18        1       17 1
  19        1       18 1
  20        1       19 1
  21        4       20 1
  22        5       21 1
  23        8       22 1
  24       12       23 1
  25       15       24 1
  26       15       25 1
  27       15       26 1

@<TRIPOS>MOLECULE

  26   27
SMALL
USER_CHARGES
@<TRIPOS>ATOM
   1 C1          -0.6208     4.2170     0.0179 C.3          1    LIG   0.0000
   2 S2           1.1461     3.8243     0.0115 S.3          1    LIG   0.0000
   3 C3           1.1482     2.0842     0.0026 C.ar         1    LIG   0.0000
   4 C4           2.3759     1.4310    -0.0038 C.ar         1    LIG   0.0000
   5 C5           2.3898     0.0405    -0.0116 C.ar         1    LIG   0.0000
   6 C6           1.1929    -0.6667    -0.0128 C.ar         1    LIG   0.0000
   7 C7           1.2339    -2.1191    -0.0202 C.ar         1    LIG   0.0000
   8 C8           1.2549    -2.8260     1.1777 C.ar         1    LIG   0.0000
   9 N9           1.2902    -4.1665     1.1755 N.ar         1    LIG   0.0000
  10 C10          1.3043    -4.8754     0.0349 C.ar         1    LIG   0.0000
  11 F11          1.3344    -6.2095     0.0214 F            1    LIG   0.0000
  12 C12          1.2847    -4.1662    -1.1618 C.ar         1    LIG   0.0000
  13 N13          1.2517    -2.8252    -1.1618 N.ar         1    LIG   0.0000
  14 C14         -0.0070     0.0393    -0.0057 C.ar         1    LIG   0.0000
  15 C15         -1.3230    -0.7216    -0.0076 C.3          1    LIG   0.0000
  16 N16          0.0042     1.3818     0.0017 N.ar         1    LIG   0.0000
  17 H           -0.7416     5.2097     0.0233 H            1    LIG   0.0000
  18 H           -1.0505     3.8333    -0.7995 H            1    LIG   0.0000
  19 H           -1.0464     3.8250     0.8335 H            1    LIG   0.0000
  20 H            3.2305     1.9503    -0.0029 H            1    LIG   0.0000
  21 H            3.2608    -0.4507    -0.0163 H            1    LIG   0.0000
  22 H            1.2437    -2.3310     2.0465 H            1    LIG   0.0000
  23 H            1.2954    -4.6611    -2.0307 H            1    LIG   0.0000
  24 H           -1.1396    -1.7047    -0.0133 H            1    LIG   0.0000
  25 H           -1.8461    -0.4849     0.8112 H            1    LIG   0.0000
  26 H           -1.8490    -0.4759    -0.8218 H            1    LIG   0.0000
@<TRIPOS>BOND
   1        1        2 1
   2        2        3 1
   3        3        4 ar
   4        4        5 ar
   5        5        6 ar
   6        6        7 1
   7        7        8 ar
   8        8        9 ar
   9        9       10 ar
  10       10       11 1
  11       10       12 ar
  12       12       13 ar
  13       13        7 ar
  14        6       14 ar
  15       14       15 1
  16       14       16 ar
  17       16        3 ar
  18        1       17 1
  19        1       18 1
  20        1       19 1
  21        4       20 1
  22        5       21 1
  23        8       22 1
  24       12       23 1
  25       15       24 1
  26       15       25 1
  27       15       26 1

@<TRIPOS>MOLECULE

  26   27
SMALL
USER_CHARGES
@<TRIPOS>ATOM
   1 C1          -0.6208     4.2170     0.0179 C.3          1    LIG   0.0000
   2 S2           1.1461     3.8243     0.0115 S.3          1    LIG   0.0000
   3 C3           1.1482     2.0842     0.0026 C.ar         1    LIG   0.0000
   4 C4           2.3759     1.4310    -0.0038 C.ar         1    LIG   0.0000
   5 C5           2.3898     0.0405    -0.0116 C.ar         1    LIG   0.0000
   6 C6           1.1929    -0.6667    -0.0128 C.ar         1    LIG   0.0000
   7 C7           1.2339    -2.1191    -0.0202 C.ar         1    LIG   0.0000
   8 C8           1.2524    -2.8137    -1.2253 C.ar         1    LIG   0.0000
   9 N9           1.2929    -4.1540    -1.2370 N.ar         1    LIG   0.0000
  10 C10          1.3191    -4.8742    -0.1037 C.ar         1    LIG   0.0000
  11 F11          1.3643    -6.2080    -0.1039 F            1    LIG   0.0000
  12 C12          1.2990    -4.1774     1.1002 C.ar         1    LIG   0.0000
  13 N13          1.2563    -2.8368     1.1140 N.ar         1    LIG   0.0000
  14 C14         -0.0070     0.0393    -0.0057 C.ar         1    LIG   0.0000
  15 C15         -1.3230    -0.7216    -0.0076 C.3          1    LIG   0.0000
  16 N16          0.0042     1.3818     0.0017 N.ar         1    LIG   0.0000
  17 H           -0.7416     5.2097     0.0233 H            1    LIG   0.0000
  18 H           -1.0505     3.8333    -0.7995 H            1    LIG   0.0000
  19 H           -1.0464     3.8250     0.8335 H            1    LIG   0.0000
  20 H            3.2305     1.9503    -0.0029 H            1    LIG   0.0000
  21 H            3.2608    -0.4507    -0.0163 H            1    LIG   0.0000
  22 H            1.2354    -2.3100    -2.0890 H            1    LIG   0.0000
  23 H            1.3165    -4.6810     1.9640 H            1    LIG   0.0000
  24 H           -1.1396    -1.7047    -0.0133 H            1    LIG   0.0000
  25 H           -1.8461    -0.4849     0.8112 H            1    LIG   0.0000
  26 H           -1.8490    -0.4759    -0.8218 H            1    LIG   0.0000
@<TRIPOS>BOND
   1        1        2 1
   2        2        3 1
   3        3        4 ar
   4        4        5 ar
   5        5        6 ar
   6        6        7 1
   7        7        8 ar
   8        8        9 ar
   9        9       10 ar
  10       10       11 1
  11       10       12 ar
  12       12       13 ar
  13       13        7 ar
  14        6       14 ar
  15       14       15 1
  16       14       16 ar
  17       16        3 ar
  18        1       17 1
  19        1       18 1
  20        1       19 1
  21        4       20 1
  22        5       21 1
  23        8       22 1
  24       12       23 1
  25       15       24 1
  26       15       25 1
  27       15       26 1

@<TRIPOS>MOLECULE

  26   27
SMALL
USER_CHARGES
@<TRIPOS>ATOM
   1 C1           1.1500     4.2101     1.7799 C.3          1    LIG   0.0000
   2 S2           1.1461     3.8243     0.0115 S.3          1    LIG   0.0000
   3 C3           1.1482     2.0842     0.0026 C.ar         1    LIG   0.0000
   4 C4           2.3759     1.4310    -0.0038 C.ar         1    LIG   0.0000
   5 C5           2.3898     0.0405    -0.0116 C.ar         1    LIG   0.0000
   6 C6           1.1929    -0.6667    -0.0128 C.ar         1    LIG   0.0000
   7 C7           1.2339    -2.1191    -0.0202 C.ar         1    LIG   0.0000
   8 C8           1.2549    -2.8260     1.1777 C.ar         1    LIG   0.0000
   9 N9           1.2902    -4.1665     1.1755 N.ar         1    LIG   0.0000
  10 C10          1.3043    -4.8754     0.0349 C.ar         1    LIG   0.0000
  11 F11          1.3344    -6.2095     0.0214 F            1    LIG   0.0000
  12 C12          1.2847    -4.1662    -1.1618 C.ar         1    LIG   0.0000
  13 N13          1.2517    -2.8252    -1.1618 N.ar         1    LIG   0.0000
  14 C14         -0.0070     0.0393    -0.0057 C.ar         1    LIG   0.0000
  15 C15         -1.3230    -0.7216    -0.0076 C.3          1    LIG   0.0000
  16 N16          0.0042     1.3818     0.0017 N.ar         1    LIG   0.0000
  17 H            1.1491     5.2023     1.9046 H            1    LIG   0.0000
  18 H            0.3351     3.8196     2.2081 H            1    LIG   0.0000
  19 H            1.9681     3.8216     2.2040 H            1    LIG   0.0000
  20 H            3.2305     1.9503    -0.0029 H            1    LIG   0.0000
  21 H            3.2608    -0.4507    -0.0163 H            1    LIG   0.0000
  22 H            1.2437    -2.3310     2.0465 H            1    LIG   0.0000
  23 H            1.2954    -4.6611    -2.0307 H            1    LIG   0.0000
  24 H           -1.1396    -1.7047    -0.0133 H            1    LIG   0.0000
  25 H           -1.8461    -0.4849     0.8112 H            1    LIG   0.0000
  26 H           -1.8490    -0.4759    -0.8218 H            1    LIG   0.0000
@<TRIPOS>BOND
   1        1        2 1
   2        2        3 1
   3        3        4 ar
   4        4        5 ar
   5        5        6 ar
   6        6        7 1
   7        7        8 ar
   8        8        9 ar
   9        9       10 ar
  10       10       11 1
  11       10       12 ar
  12       12       13 ar
  13       13        7 ar
  14        6       14 ar
  15       14       15 1
  16       14       16 ar
  17       16        3 ar
  18        1       17 1
  19        1       18 1
  20        1       19 1
  21        4       20 1
  22        5       21 1
  23        8       22 1
  24       12       23 1
  25       15       24 1
  26       15       25 1
  27       15       26 1

@<TRIPOS>MOLECULE

  26   27
SMALL
USER_CHARGES
@<TRIPOS>ATOM
   1 C1           1.1500     4.2101     1.7799 C.3          1    LIG   0.0000
   2 S2           1.1461     3.8243     0.0115 S.3          1    LIG   0.0000
   3 C3           1.1482     2.0842     0.0026 C.ar         1    LIG   0.0000
   4 C4           2.3759     1.4310    -0.0038 C.ar         1    LIG   0.0000
   5 C5           2.3898     0.0405    -0.0116 C.ar         1    LIG   0.0000
   6 C6           1.1929    -0.6667    -0.0128 C.ar         1    LIG   0.0000
   7 C7           1.2339    -2.1191    -0.0202 C.ar         1    LIG   0.0000
   8 C8           1.2524    -2.8137    -1.2253 C.ar         1    LIG   0.0000
   9 N9           1.2929    -4.1540    -1.2370 N.ar         1    LIG   0.0000
  10 C10          1.3191    -4.8742    -0.1037 C.ar         1    LIG   0.0000
  11 F11          1.3643    -6.2080    -0.1039 F            1    LIG   0.0000
  12 C12          1.2990    -4.1774     1.1002 C.ar         1    LIG   0.0000
  13 N13          1.2563    -2.8368     1.1140 N.ar         1    LIG   0.0000
  14 C14         -0.0070     0.0393    -0.0057 C.ar         1    LIG   0.0000
  15 C15         -1.3230    -0.7216    -0.0076 C.3          1    LIG   0.0000
  16 N16          0.0042     1.3818     0.0017 N.ar         1    LIG   0.0000
  17 H            1.1491     5.2023     1.9046 H            1    LIG   0.0000
  18 H            0.3351     3.8196     2.2081 H            1    LIG   0.0000
  19 H            1.9681     3.8216     2.2040 H            1    LIG   0.0000
  20 H            3.2305     1.9503    -0.0029 H            1    LIG   0.0000
  21 H            3.2608    -0.4507    -0.0163 H            1    LIG   0.0000
  22 H            1.2354    -2.3100    -2.0890 H            1    LIG   0.0000
  23 H            1.3165    -4.6810     1.9640 H            1    LIG   0.0000
  24 H           -1.1396    -1.7047    -0.0133 H            1    LIG   0.0000
  25 H           -1.8461    -0.4849     0.8112 H            1    LIG   0.0000
  26 H           -1.8490    -0.4759    -0.8218 H            1    LIG   0.0000
@<TRIPOS>BOND
   1        1        2 1
   2        2        3 1
   3        3        4 ar
   4        4        5 ar
   5        5        6 ar
   6        6        7 1
   7        7        8 ar
   8        8        9 ar
   9        9       10 ar
  10       10       11 1
  11       10       12 ar
  12       12       13 ar
  13       13        7 ar
  14        6       14 ar
  15       14       15 1
  16       14       16 ar
  17       16        3 ar
  18        1       17 1
  19        1       18 1
  20        1       19 1
  21        4       20 1
  22        5       21 1
  23        8       22 1
  24       12       23 1
  25       15       24 1
  26       15       25 1
  27       15       26 1

@<TRIPOS>MOLECULE

  26   27
SMALL
USER_CHARGES
@<TRIPOS>ATOM
   1 C1           1.1413     4.2282    -1.7529 C.3          1    LIG   0.0000
   2 S2           1.1461     3.8243     0.0115 S.3          1    LIG   0.0000
   3 C3           1.1482     2.0842     0.0026 C.ar         1    LIG   0.0000
   4 C4           2.3759     1.4310    -0.0038 C.ar         1    LIG   0.0000
   5 C5           2.3898     0.0405    -0.0116 C.ar         1    LIG   0.0000
   6 C6           1.1929    -0.6667    -0.0128 C.ar         1    LIG   0.0000
   7 C7           1.2339    -2.1191    -0.0202 C.ar         1    LIG   0.0000
   8 C8           1.2549    -2.8260     1.1777 C.ar         1    LIG   0.0000
   9 N9           1.2902    -4.1665     1.1755 N.ar         1    LIG   0.0000
  10 C10          1.3043    -4.8754     0.0349 C.ar         1    LIG   0.0000
  11 F11          1.3344    -6.2095     0.0214 F            1    LIG   0.0000
  12 C12          1.2847    -4.1662    -1.1618 C.ar         1    LIG   0.0000
  13 N13          1.2517    -2.8252    -1.1618 N.ar         1    LIG   0.0000
  14 C14         -0.0070     0.0393    -0.0057 C.ar         1    LIG   0.0000
  15 C15         -1.3230    -0.7216    -0.0076 C.3          1    LIG   0.0000
  16 N16          0.0042     1.3818     0.0017 N.ar         1    LIG   0.0000
  17 H            1.1398     5.2217    -1.8674 H            1    LIG   0.0000
  18 H            1.9572     3.8441    -2.1850 H            1    LIG   0.0000
  19 H            0.3242     3.8421    -2.1809 H            1    LIG   0.0000
  20 H            3.2305     1.9503    -0.0029 H            1    LIG   0.0000
  21 H            3.2608    -0.4507    -0.0163 H            1    LIG   0.0000
  22 H            1.2437    -2.3310     2.0465 H            1    LIG   0.0000
  23 H            1.2954    -4.6611    -2.0307 H            1    LIG   0.0000
  24 H           -1.1396    -1.7047    -0.0133 H            1    LIG   0.0000
  25 H           -1.8461    -0.4849     0.8112 H            1    LIG   0.0000
  26 H           -1.8490    -0.4759    -0.8218 H            1    LIG   0.0000
@<TRIPOS>BOND
   1        1        2 1
   2        2        3 1
   3        3        4 ar
   4        4        5 ar
   5        5        6 ar
   6        6        7 1
   7        7        8 ar
   8        8        9 ar
   9        9       10 ar
  10       10       11 1
  11       10       12 ar
  12       12       13 ar
  13       13        7 ar
  14        6       14 ar
  15       14       15 1
  16       14       16 ar
  17       16        3 ar
  18        1       17 1
  19        1       18 1
  20        1       19 1
  21        4       20 1
  22        5       21 1
  23        8       22 1
  24       12       23 1
  25       15       24 1
  26       15       25 1
  27       15       26 1

@<TRIPOS>MOLECULE

  26   27
SMALL
USER_CHARGES
@<TRIPOS>ATOM
   1 C1           1.1413     4.2282    -1.7529 C.3          1    LIG   0.0000
   2 S2           1.1461     3.8243     0.0115 S.3          1    LIG   0.0000
   3 C3           1.1482     2.0842     0.0026 C.ar         1    LIG   0.0000
   4 C4           2.3759     1.4310    -0.0038 C.ar         1    LIG   0.0000
   5 C5           2.3898     0.0405    -0.0116 C.ar         1    LIG   0.0000
   6 C6           1.1929    -0.6667    -0.0128 C.ar         1    LIG   0.0000
   7 C7           1.2339    -2.1191    -0.0202 C.ar         1    LIG   0.0000
   8 C8           1.2524    -2.8137    -1.2253 C.ar         1    LIG   0.0000
   9 N9           1.2929    -4.1540    -1.2370 N.ar         1    LIG   0.0000
  10 C10          1.3191    -4.8742    -0.1037 C.ar         1    LIG   0.0000
  11 F11          1.3643    -6.2080    -0.1039 F            1    LIG   0.0000
  12 C12          1.2990    -4.1774     1.1002 C.ar         1    LIG   0.0000
  13 N13          1.2563    -2.8368     1.1140 N.ar         1    LIG   0.0000
  14 C14         -0.0070     0.0393    -0.0057 C.ar         1    LIG   0.0000
  15 C15         -1.3230    -0.7216    -0.0076 C.3          1    LIG   0.0000
  16 N16          0.0042     1.3818     0.0017 N.ar         1    LIG   0.0000
  17 H            1.1398     5.2217    -1.8674 H            1    LIG   0.0000
  18 H            1.9572     3.8441    -2.1850 H            1    LIG   0.0000
  19 H            0.3242     3.8421    -2.1809 H            1    LIG   0.0000
  20 H            3.2305     1.9503    -0.0029 H            1    LIG   0.0000
  21 H            3.2608    -0.4507    -0.0163 H            1    LIG   0.0000
  22 H            1.2354    -2.3100    -2.0890 H            1    LIG   0.0000
  23 H            1.3165    -4.6810     1.9640 H            1    LIG   0.0000
  24 H           -1.1396    -1.7047    -0.0133 H            1    LIG   0.0000
  25 H           -1.8461    -0.4849     0.8112 H            1    LIG   0.0000
  26 H           -1.8490    -0.4759    -0.8218 H            1    LIG   0.0000
@<TRIPOS>BOND
   1        1        2 1
   2        2        3 1
   3        3        4 ar
   4        4        5 ar
   5        5        6 ar
   6        6        7 1
   7        7        8 ar
   8        8        9 ar
   9        9       10 ar
  10       10       11 1
  11       10       12 ar
  12       12       13 ar
  13       13        7 ar
  14        6       14 ar
  15       14       15 1
  16       14       16 ar
  17       16        3 ar
  18        1       17 1
  19        1       18 1
  20        1       19 1
  21        4       20 1
  22        5       21 1
  23        8       22 1
  24       12       23 1
  25       15       24 1
  26       15       25 1
  27       15       26 1

@<TRIPOS>MOLECULE

  26   27
SMALL
USER_CHARGES
@<TRIPOS>ATOM
   1 C1           0.1289     4.2254    -1.4309 C.3          1    LIG   0.0000
   2 S2           1.1461     3.8243     0.0115 S.3          1    LIG   0.0000
   3 C3           1.1482     2.0842     0.0026 C.ar         1    LIG   0.0000
   4 C4           2.3759     1.4310    -0.0038 C.ar         1    LIG   0.0000
   5 C5           2.3898     0.0405    -0.0116 C.ar         1    LIG   0.0000
   6 C6           1.1929    -0.6667    -0.0128 C.ar         1    LIG   0.0000
   7 C7           1.2339    -2.1191    -0.0202 C.ar         1    LIG   0.0000
   8 C8           0.6543    -2.8421     1.0172 C.ar         1    LIG   0.0000
   9 N9           0.6875    -4.1827     1.0132 N.ar         1    LIG   0.0000
  10 C10          1.2707    -4.8762     0.0219 C.ar         1    LIG   0.0000
  11 F11          1.3051    -6.2102     0.0055 F            1    LIG   0.0000
  12 C12          1.8510    -4.1510    -1.0137 C.ar         1    LIG   0.0000
  13 N13          1.8207    -2.8099    -1.0104 N.ar         1    LIG   0.0000
  14 C14         -0.0070     0.0393    -0.0057 C.ar         1    LIG   0.0000
  15 C15         -1.3230    -0.7216    -0.0076 C.3          1    LIG   0.0000
  16 N16          0.0042     1.3818     0.0017 N.ar         1    LIG   0.0000
  17 H            0.0588     5.2186    -1.5236 H            1    LIG   0.0000
  18 H            0.5506     3.8427    -2.2530 H            1    LIG   0.0000
  19 H           -0.7848     3.8363    -1.3130 H            1    LIG   0.0000
  20 H            3.2305     1.9503    -0.0029 H            1    LIG   0.0000
  21 H            3.2608    -0.4507    -0.0163 H            1    LIG   0.0000
  22 H            0.2097    -2.3588     1.7714 H            1    LIG   0.0000
  23 H            2.2951    -4.6342    -1.7682 H            1    LIG   0.0000
  24 H           -1.1396    -1.7047    -0.0133 H            1    LIG   0.0000
  25 H           -1.8461    -0.4849     0.8112 H            1    LIG   0.0000
  26 H           -1.8490    -0.4759    -0.8218 H            1    LIG   0.0000
@<TRIPOS>BOND
   1        1        2 1
   2        2        3 1
   3        3        4 ar
   4        4        5 ar
   5        5        6 ar
   6        6        7 1
   7        7        8 ar
   8        8        9 ar
   9        9       10 ar
  10       10       11 1
  11       10       12 ar
  12       12       13 ar
  13       13        7 ar
  14        6       14 ar
  15       14       15 1
  16       14       16 ar
  17       16        3 ar
  18        1       17 1
  19        1       18 1
  20        1       19 1
  21        4       20 1
  22        5       21 1
  23        8       22 1
  24       12       23 1
  25       15       24 1
  26       15       25 1
  27       15       26 1

@<TRIPOS>MOLECULE

  26   27
SMALL
USER_CHARGES
@<TRIPOS>ATOM
   1 C1           0.1289     4.2254    -1.4309 C.3          1    LIG   0.0000
   2 S2           1.1461     3.8243     0.0115 S.3          1    LIG   0.0000
   3 C3           1.1482     2.0842     0.0026 C.ar         1    LIG   0.0000
   4 C4           2.3759     1.4310    -0.0038 C.ar         1    LIG   0.0000
   5 C5           2.3898     0.0405    -0.0116 C.ar         1    LIG   0.0000
   6 C6           1.1929    -0.6667    -0.0128 C.ar         1    LIG   0.0000
   7 C7           1.2339    -2.1191    -0.0202 C.ar         1    LIG   0.0000
   8 C8           0.6521    -2.8315    -1.0638 C.ar         1    LIG   0.0000
   9 N9           0.6898    -4.1719    -1.0761 N.ar         1    LIG   0.0000
  10 C10          1.2834    -4.8753    -0.0981 C.ar         1    LIG   0.0000
  11 F11          1.3309    -6.2089    -0.1030 F            1    LIG   0.0000
  12 C12          1.8633    -4.1607     0.9452 C.ar         1    LIG   0.0000
  13 N13          1.8247    -2.8199     0.9605 N.ar         1    LIG   0.0000
  14 C14         -0.0070     0.0393    -0.0057 C.ar         1    LIG   0.0000
  15 C15         -1.3230    -0.7216    -0.0076 C.3          1    LIG   0.0000
  16 N16          0.0042     1.3818     0.0017 N.ar         1    LIG   0.0000
  17 H            0.0588     5.2186    -1.5236 H            1    LIG   0.0000
  18 H            0.5506     3.8427    -2.2530 H            1    LIG   0.0000
  19 H           -0.7848     3.8363    -1.3130 H            1    LIG   0.0000
  20 H            3.2305     1.9503    -0.0029 H            1    LIG   0.0000
  21 H            3.2608    -0.4507    -0.0163 H            1    LIG   0.0000
  22 H            0.2025    -2.3406    -1.8101 H            1    LIG   0.0000
  23 H            2.3134    -4.6515     1.6913 H            1    LIG   0.0000
  24 H           -1.1396    -1.7047    -0.0133 H            1    LIG   0.0000
  25 H           -1.8461    -0.4849     0.8112 H            1    LIG   0.0000
  26 H           -1.8490    -0.4759    -0.8218 H            1    LIG   0.0000
@<TRIPOS>BOND
   1        1        2 1
   2        2        3 1
   3        3        4 ar
   4        4        5 ar
   5        5        6 ar
   6        6        7 1
   7        7        8 ar
   8        8        9 ar
   9        9       10 ar
  10       10       11 1
  11       10       12 ar
  12       12       13 ar
  13       13        7 ar
  14        6       14 ar
  15       14       15 1
  16       14       16 ar
  17       16        3 ar
  18        1       17 1
  19        1       18 1
  20        1       19 1
  21        4       20 1
  22        5       21 1
  23        8       22 1
  24       12       23 1
  25       15       24 1
  26       15       25 1
  27       15       26 1

@<TRIPOS>MOLECULE

  26   27
SMALL
USER_CHARGES
@<TRIPOS>ATOM
   1 C1           2.1552     4.2278    -1.4359 C.3          1    LIG   0.0000
   2 S2           1.1461     3.8243     0.0115 S.3          1    LIG   0.0000
   3 C3           1.1482     2.0842     0.0026 C.ar         1    LIG   0.0000
   4 C4           2.3759     1.4310    -0.0038 C.ar         1    LIG   0.0000
   5 C5           2.3898     0.0405    -0.0116 C.ar         1    LIG   0.0000
   6 C6           1.1929    -0.6667    -0.0128 C.ar         1    LIG   0.0000
   7 C7           1.2339    -2.1191    -0.0202 C.ar         1    LIG   0.0000
   8 C8           0.6521    -2.8315    -1.0638 C.ar         1    LIG   0.0000
   9 N9           0.6898    -4.1719    -1.0761 N.ar         1    LIG   0.0000
  10 C10          1.2834    -4.8753    -0.0981 C.ar         1    LIG   0.0000
  11 F11          1.3309    -6.2089    -0.1030 F            1    LIG   0.0000
  12 C12          1.8633    -4.1607     0.9452 C.ar         1    LIG   0.0000
  13 N13          1.8247    -2.8199     0.9605 N.ar         1    LIG   0.0000
  14 C14         -0.0070     0.0393    -0.0057 C.ar         1    LIG   0.0000
  15 C15         -1.3230    -0.7216    -0.0076 C.3          1    LIG   0.0000
  16 N16          0.0042     1.3818     0.0017 N.ar         1    LIG   0.0000
  17 H            2.2224     5.2212    -1.5290 H            1    LIG   0.0000
  18 H            3.0704     3.8410    -1.3226 H            1    LIG   0.0000
  19 H            1.7304     3.8442    -2.2559 H            1    LIG   0.0000
  20 H            3.2305     1.9503    -0.0029 H            1    LIG   0.0000
  21 H            3.2608    -0.4507    -0.0163 H            1    LIG   0.0000
  22 H            0.2025    -2.3406    -1.8101 H            1    LIG   0.0000
  23 H            2.3134    -4.6515     1.6913 H            1    LIG   0.0000
  24 H           -1.1396    -1.7047    -0.0133 H            1    LIG   0.0000
  25 H           -1.8461    -0.4849     0.8112 H            1    LIG   0.0000
  26 H           -1.8490    -0.4759    -0.8218 H            1    LIG   0.0000
@<TRIPOS>BOND
   1        1        2 1
   2        2        3 1
   3        3        4 ar
   4        4        5 ar
   5        5        6 ar
   6        6        7 1
   7        7        8 ar
   8        8        9 ar
   9        9       10 ar
  10       10       11 1
  11       10       12 ar
  12       12       13 ar
  13       13        7 ar
  14        6       14 ar
  15       14       15 1
  16       14       16 ar
  17       16        3 ar
  18        1       17 1
  19        1       18 1
  20        1       19 1
  21        4       20 1
  22        5       21 1
  23        8       22 1
  24       12       23 1
  25       15       24 1
  26       15       25 1
  27       15       26 1

