@<TRIPOS>MOLECULE
*****
 26 27 0 0 0
SMALL
USER_CHARGES

@<TRIPOS>ATOM
      1 C1          0.1289    4.2254   -1.4309 C.3     1  LIG1        0.0000
      2 S2          1.1461    3.8243    0.0115 S.3     1  LIG1        0.0000
      3 C3          1.1482    2.0842    0.0026 C.ar    1  LIG1        0.0000
      4 C4          2.3759    1.4310   -0.0038 C.ar    1  LIG1        0.0000
      5 C5          2.3898    0.0405   -0.0116 C.ar    1  LIG1        0.0000
      6 C6          1.1929   -0.6667   -0.0128 C.ar    1  LIG1        0.0000
      7 C7          1.2339   -2.1191   -0.0202 C.ar    1  LIG1        0.0000
      8 C8          0.6521   -2.8315   -1.0638 C.ar    1  LIG1        0.0000
      9 N9          0.6898   -4.1719   -1.0761 N.ar    1  LIG1        0.0000
     10 C10         1.2834   -4.8753   -0.0981 C.ar    1  LIG1        0.0000
     11 F11         1.3309   -6.2089   -0.1030 F       1  LIG1        0.0000
     12 C12         1.8633   -4.1607    0.9452 C.ar    1  LIG1        0.0000
     13 N13         1.8247   -2.8199    0.9605 N.ar    1  LIG1        0.0000
     14 C14        -0.0070    0.0393   -0.0057 C.ar    1  LIG1        0.0000
     15 C15        -1.3230   -0.7216   -0.0076 C.3     1  LIG1        0.0000
     16 N16         0.0042    1.3818    0.0017 N.ar    1  LIG1        0.0000
     17 H           0.0588    5.2186   -1.5236 H       1  LIG1        0.0000
     18 H           0.5506    3.8427   -2.2530 H       1  LIG1        0.0000
     19 H          -0.7848    3.8363   -1.3130 H       1  LIG1        0.0000
     20 H           3.2305    1.9503   -0.0029 H       1  LIG1        0.0000
     21 H           3.2608   -0.4507   -0.0163 H       1  LIG1        0.0000
     22 H           0.2025   -2.3406   -1.8101 H       1  LIG1        0.0000
     23 H           2.3134   -4.6515    1.6913 H       1  LIG1        0.0000
     24 H          -1.1396   -1.7047   -0.0133 H       1  LIG1        0.0000
     25 H          -1.8461   -0.4849    0.8112 H       1  LIG1        0.0000
     26 H          -1.8490   -0.4759   -0.8218 H       1  LIG1        0.0000
@<TRIPOS>BOND
     1     1     2    1
     2     2     3    1
     3     3     4   ar
     4     4     5   ar
     5     5     6   ar
     6     6     7    1
     7     7     8   ar
     8     8     9   ar
     9     9    10   ar
    10    10    11    1
    11    10    12   ar
    12    12    13   ar
    13    13     7   ar
    14     6    14   ar
    15    14    15    1
    16    14    16   ar
    17    16     3   ar
    18     1    17    1
    19     1    18    1
    20     1    19    1
    21     4    20    1
    22     5    21    1
    23     8    22    1
    24    12    23    1
    25    15    24    1
    26    15    25    1
    27    15    26    1
