@<TRIPOS>MOLECULE

  61   64
SMALL
USER_CHARGES
@<TRIPOS>ATOM
   1 C1          -2.6302     3.1144     0.4834 C.3          1    LIG   0.0000
   2 O2          -1.2998     3.0163    -0.0032 O.3          1    LIG   0.0000
   3 C3          -1.0275     1.9320    -0.6859 C.2          1    LIG   0.0000
   4 O4          -1.8785     1.1046    -0.8625 O.2          1    LIG   0.0000
   5 C5           0.3033     1.7314    -1.2288 C.2          1    LIG   0.0000
   6 C6           1.2924     1.2924    -0.4618 C.2          1    LIG   0.0000
   7 C7           1.0000     1.0000     1.0000 C.3          1    LIG   0.0000
   8 N8           1.8487     1.8487     1.8487 N.pl3        1    LIG   0.0000
   9 C9           1.7579     1.7579     3.2424 C.ar         1    LIG   0.0000
  10 C10          0.8643     0.8647     3.8245 C.ar         1    LIG   0.0000
  11 C11          0.7805     0.7835     5.2104 C.ar         1    LIG   0.0000
  12 C12          1.5886     1.5906     6.0045 C.ar         1    LIG   0.0000
  13 C13          2.4836     2.4851     5.4271 C.ar         1    LIG   0.0000
  14 C14          2.5628     2.5628     4.0407 C.ar         1    LIG   0.0000
  15 N15          3.4598     3.4584     3.4470 N.am         1    LIG   0.0000
  16 C16          3.7874     4.6249     4.0866 C.2          1    LIG   0.0000
  17 O17          3.3053     4.8787     5.1558 O.2          1    LIG   0.0000
  18 C18          4.7615     5.5975     3.4419 C.3          1    LIG   0.0000
  19 C19          4.9513     6.7995     4.3492 C.2          1    LIG   0.0000
  20 C20          4.2308     7.9547     4.3545 C.2          1    LIG   0.0000
  21 C21          4.6731     8.8812     5.3368 C.2          1    LIG   0.0000
  22 C22          5.7259     8.4993     6.1146 C.2          1    LIG   0.0000
  23 S23          6.1296     6.9399     5.5664 S.3          1    LIG   0.0000
  24 N24          2.5962     1.0909    -0.9403 N.am         1    LIG   0.0000
  25 C25          3.6586     0.5836    -0.0619 C.3          1    LIG   0.0000
  26 C26          2.9031     1.3830    -2.2766 C.2          1    LIG   0.0000
  27 O27          4.0312     1.2302    -2.7158 O.2          1    LIG   0.0000
  28 N28          1.9146     1.8606    -3.1460 N.am         1    LIG   0.0000
  29 C29          0.5234     2.0480    -2.7040 C.3          1    LIG   0.0000
  30 C30         -0.0242     3.4147    -3.0830 C.ar         1    LIG   0.0000
  31 C31         -1.3349     3.5298    -3.5343 C.ar         1    LIG   0.0000
  32 C32         -1.8275     4.7839    -3.8797 C.ar         1    LIG   0.0000
  33 C33         -1.0120     5.9063    -3.7717 C.ar         1    LIG   0.0000
  34 C34          0.2975     5.7818    -3.3192 C.ar         1    LIG   0.0000
  35 C35          0.7983     4.5310    -2.9723 C.ar         1    LIG   0.0000
  36 H           -0.0206     1.3815    -3.2137 H            1    LIG   0.0000
  37 H           -2.7383     3.9710     0.9880 H            1    LIG   0.0000
  38 H           -3.2686     3.0980    -0.2861 H            1    LIG   0.0000
  39 H           -2.8207     2.3433     1.0910 H            1    LIG   0.0000
  40 H            0.0377     1.1925     1.1925 H            1    LIG   0.0000
  41 H            1.1925     0.0377     1.1925 H            1    LIG   0.0000
  42 H            2.4909     2.4909     1.4303 H            1    LIG   0.0000
  43 H            0.2861     0.2850     3.2504 H            1    LIG   0.0000
  44 H            0.1393     0.1450     5.6359 H            1    LIG   0.0000
  45 H            1.5254     1.5271     7.0005 H            1    LIG   0.0000
  46 H            3.0624     3.0644     6.0010 H            1    LIG   0.0000
  47 H            3.8616     3.2469     2.5560 H            1    LIG   0.0000
  48 H            4.3972     5.8991     2.5608 H            1    LIG   0.0000
  49 H            5.6414     5.1438     3.3011 H            1    LIG   0.0000
  50 H            3.4692     8.1327     3.7315 H            1    LIG   0.0000
  51 H            4.2329     9.7716     5.4523 H            1    LIG   0.0000
  52 H            6.1643     9.0211     6.8464 H            1    LIG   0.0000
  53 H            3.2870     0.4240     0.8527 H            1    LIG   0.0000
  54 H            4.0151    -0.2746    -0.4313 H            1    LIG   0.0000
  55 H            4.3969     1.2560    -0.0090 H            1    LIG   0.0000
  56 H            2.1600     2.0796    -4.0903 H            1    LIG   0.0000
  57 H           -1.9166     2.7199    -3.6097 H            1    LIG   0.0000
  58 H           -2.7681     4.8790    -4.2056 H            1    LIG   0.0000
  59 H           -1.3690     6.8066    -4.0207 H            1    LIG   0.0000
  60 H            0.8791     6.5917    -3.2431 H            1    LIG   0.0000
  61 H            1.7391     4.4356    -2.6471 H            1    LIG   0.0000
@<TRIPOS>BOND
   1        1        2 1
   2        2        3 1
   3        3        4 2
   4        3        5 1
   5        5        6 2
   6        6        7 1
   7        7        8 1
   8        8        9 1
   9        9       10 ar
  10       10       11 ar
  11       11       12 ar
  12       12       13 ar
  13       13       14 ar
  14       14        9 ar
  15       14       15 1
  16       15       16 am
  17       16       17 2
  18       16       18 1
  19       18       19 1
  20       19       20 2
  21       20       21 1
  22       21       22 2
  23       22       23 1
  24       23       19 1
  25        6       24 1
  26       24       25 1
  27       24       26 am
  28       26       27 2
  29       26       28 am
  30       28       29 1
  31       29        5 1
  32       29       30 1
  33       30       31 ar
  34       31       32 ar
  35       32       33 ar
  36       33       34 ar
  37       34       35 ar
  38       35       30 ar
  39       29       36 1
  40        1       37 1
  41        1       38 1
  42        1       39 1
  43        7       40 1
  44        7       41 1
  45        8       42 1
  46       10       43 1
  47       11       44 1
  48       12       45 1
  49       13       46 1
  50       15       47 1
  51       18       48 1
  52       18       49 1
  53       20       50 1
  54       21       51 1
  55       22       52 1
  56       25       53 1
  57       25       54 1
  58       25       55 1
  59       28       56 1
  60       31       57 1
  61       32       58 1
  62       33       59 1
  63       34       60 1
  64       35       61 1

@<TRIPOS>MOLECULE

  61   64
SMALL
USER_CHARGES
@<TRIPOS>ATOM
   1 C1           1.1985    -3.1092     0.0044 C.3          1    LIG   0.0000
   2 O2           0.8998    -1.8289    -0.5323 O.3          1    LIG   0.0000
   3 C3           1.9256    -1.0291    -0.6875 C.2          1    LIG   0.0000
   4 O4           3.0258    -1.3982    -0.3822 O.2          1    LIG   0.0000
   5 C5           1.7314     0.3033    -1.2288 C.2          1    LIG   0.0000
   6 C6           1.2924     1.2924    -0.4618 C.2          1    LIG   0.0000
   7 C7           1.0000     1.0000     1.0000 C.3          1    LIG   0.0000
   8 N8           1.8487     1.8487     1.8487 N.pl3        1    LIG   0.0000
   9 C9           1.7579     1.7579     3.2424 C.ar         1    LIG   0.0000
  10 C10          0.8643     0.8647     3.8245 C.ar         1    LIG   0.0000
  11 C11          0.7805     0.7835     5.2104 C.ar         1    LIG   0.0000
  12 C12          1.5886     1.5906     6.0045 C.ar         1    LIG   0.0000
  13 C13          2.4836     2.4851     5.4271 C.ar         1    LIG   0.0000
  14 C14          2.5628     2.5628     4.0407 C.ar         1    LIG   0.0000
  15 N15          3.4598     3.4584     3.4470 N.am         1    LIG   0.0000
  16 C16          3.7874     4.6249     4.0866 C.2          1    LIG   0.0000
  17 O17          3.3053     4.8787     5.1558 O.2          1    LIG   0.0000
  18 C18          4.7615     5.5975     3.4419 C.3          1    LIG   0.0000
  19 C19          4.9513     6.7995     4.3492 C.2          1    LIG   0.0000
  20 C20          4.2308     7.9547     4.3545 C.2          1    LIG   0.0000
  21 C21          4.6731     8.8812     5.3368 C.2          1    LIG   0.0000
  22 C22          5.7259     8.4993     6.1146 C.2          1    LIG   0.0000
  23 S23          6.1296     6.9399     5.5664 S.3          1    LIG   0.0000
  24 N24          1.0822     2.5940    -0.9425 N.am         1    LIG   0.0000
  25 C25          0.6142     3.6662    -0.0542 C.3          1    LIG   0.0000
  26 C26          1.3125     2.8855    -2.2943 C.2          1    LIG   0.0000
  27 O27          1.1252     4.0050    -2.7420 O.2          1    LIG   0.0000
  28 N28          1.7668     1.8911    -3.1694 N.am         1    LIG   0.0000
  29 C29          2.0429     0.5221    -2.7053 C.3          1    LIG   0.0000
  30 C30          1.3918    -0.5299    -3.5887 C.ar         1    LIG   0.0000
  31 C31          2.0854    -1.6960    -3.8955 C.ar         1    LIG   0.0000
  32 C32          1.4824    -2.6529    -4.7050 C.ar         1    LIG   0.0000
  33 C33          0.1990    -2.4388    -5.1985 C.ar         1    LIG   0.0000
  34 C34         -0.4874    -1.2698    -4.8865 C.ar         1    LIG   0.0000
  35 C35          0.1088    -0.3072    -4.0779 C.ar         1    LIG   0.0000
  36 H            3.0296     0.3915    -2.8016 H            1    LIG   0.0000
  37 H            0.3561    -3.6421     0.0842 H            1    LIG   0.0000
  38 H            1.8370    -3.5839    -0.6014 H            1    LIG   0.0000
  39 H            1.6128    -3.0033     0.9084 H            1    LIG   0.0000
  40 H            0.0377     1.1925     1.1925 H            1    LIG   0.0000
  41 H            1.1925     0.0377     1.1925 H            1    LIG   0.0000
  42 H            2.4909     2.4909     1.4303 H            1    LIG   0.0000
  43 H            0.2861     0.2850     3.2504 H            1    LIG   0.0000
  44 H            0.1393     0.1450     5.6359 H            1    LIG   0.0000
  45 H            1.5254     1.5271     7.0005 H            1    LIG   0.0000
  46 H            3.0624     3.0644     6.0010 H            1    LIG   0.0000
  47 H            3.8616     3.2469     2.5560 H            1    LIG   0.0000
  48 H            4.3972     5.8991     2.5608 H            1    LIG   0.0000
  49 H            5.6414     5.1438     3.3011 H            1    LIG   0.0000
  50 H            3.4692     8.1327     3.7315 H            1    LIG   0.0000
  51 H            4.2329     9.7716     5.4523 H            1    LIG   0.0000
  52 H            6.1643     9.0211     6.8464 H            1    LIG   0.0000
  53 H            0.4971     3.3052     0.8710 H            1    LIG   0.0000
  54 H            1.2874     4.4056    -0.0408 H            1    LIG   0.0000
  55 H           -0.2604     4.0178    -0.3881 H            1    LIG   0.0000
  56 H            1.9071     2.1169    -4.1334 H            1    LIG   0.0000
  57 H            3.0073    -1.8447    -3.5379 H            1    LIG   0.0000
  58 H            1.9713    -3.4950    -4.9325 H            1    LIG   0.0000
  59 H           -0.2319    -3.1286    -5.7803 H            1    LIG   0.0000
  60 H           -1.4096    -1.1212    -5.2434 H            1    LIG   0.0000
  61 H           -0.3797     0.5353    -3.8509 H            1    LIG   0.0000
@<TRIPOS>BOND
   1        1        2 1
   2        2        3 1
   3        3        4 2
   4        3        5 1
   5        5        6 2
   6        6        7 1
   7        7        8 1
   8        8        9 1
   9        9       10 ar
  10       10       11 ar
  11       11       12 ar
  12       12       13 ar
  13       13       14 ar
  14       14        9 ar
  15       14       15 1
  16       15       16 am
  17       16       17 2
  18       16       18 1
  19       18       19 1
  20       19       20 2
  21       20       21 1
  22       21       22 2
  23       22       23 1
  24       23       19 1
  25        6       24 1
  26       24       25 1
  27       24       26 am
  28       26       27 2
  29       26       28 am
  30       28       29 1
  31       29        5 1
  32       29       30 1
  33       30       31 ar
  34       31       32 ar
  35       32       33 ar
  36       33       34 ar
  37       34       35 ar
  38       35       30 ar
  39       29       36 1
  40        1       37 1
  41        1       38 1
  42        1       39 1
  43        7       40 1
  44        7       41 1
  45        8       42 1
  46       10       43 1
  47       11       44 1
  48       12       45 1
  49       13       46 1
  50       15       47 1
  51       18       48 1
  52       18       49 1
  53       20       50 1
  54       21       51 1
  55       22       52 1
  56       25       53 1
  57       25       54 1
  58       25       55 1
  59       28       56 1
  60       31       57 1
  61       32       58 1
  62       33       59 1
  63       34       60 1
  64       35       61 1

@<TRIPOS>MOLECULE

  61   64
SMALL
USER_CHARGES
@<TRIPOS>ATOM
   1 C1          -2.6302     3.1144     0.4834 C.3          1    LIG   0.0000
   2 O2          -1.2998     3.0163    -0.0032 O.3          1    LIG   0.0000
   3 C3          -1.0275     1.9320    -0.6859 C.2          1    LIG   0.0000
   4 O4          -1.8785     1.1046    -0.8625 O.2          1    LIG   0.0000
   5 C5           0.3033     1.7314    -1.2288 C.2          1    LIG   0.0000
   6 C6           1.2924     1.2924    -0.4618 C.2          1    LIG   0.0000
   7 C7           1.0000     1.0000     1.0000 C.3          1    LIG   0.0000
   8 N8           1.8487     1.8487     1.8487 N.pl3        1    LIG   0.0000
   9 C9           1.7579     1.7579     3.2424 C.ar         1    LIG   0.0000
  10 C10          0.8643     0.8647     3.8245 C.ar         1    LIG   0.0000
  11 C11          0.7805     0.7835     5.2104 C.ar         1    LIG   0.0000
  12 C12          1.5886     1.5906     6.0045 C.ar         1    LIG   0.0000
  13 C13          2.4836     2.4851     5.4271 C.ar         1    LIG   0.0000
  14 C14          2.5628     2.5628     4.0407 C.ar         1    LIG   0.0000
  15 N15          3.4598     3.4584     3.4470 N.am         1    LIG   0.0000
  16 C16          3.7874     4.6249     4.0866 C.2          1    LIG   0.0000
  17 O17          3.3053     4.8787     5.1558 O.2          1    LIG   0.0000
  18 C18          4.7615     5.5975     3.4419 C.3          1    LIG   0.0000
  19 C19          5.2201     5.0429     2.1054 C.2          1    LIG   0.0000
  20 C20          6.2933     4.2399     1.8666 C.2          1    LIG   0.0000
  21 C21          6.4401     3.9016     0.4944 C.2          1    LIG   0.0000
  22 C22          5.5161     4.4120    -0.3685 C.2          1    LIG   0.0000
  23 S23          4.4631     5.3232     0.6094 S.3          1    LIG   0.0000
  24 N24          2.5962     1.0909    -0.9403 N.am         1    LIG   0.0000
  25 C25          3.6586     0.5836    -0.0619 C.3          1    LIG   0.0000
  26 C26          2.9031     1.3830    -2.2766 C.2          1    LIG   0.0000
  27 O27          4.0312     1.2302    -2.7158 O.2          1    LIG   0.0000
  28 N28          1.9146     1.8606    -3.1460 N.am         1    LIG   0.0000
  29 C29          0.5234     2.0480    -2.7040 C.3          1    LIG   0.0000
  30 C30         -0.0242     3.4147    -3.0830 C.ar         1    LIG   0.0000
  31 C31         -1.3349     3.5298    -3.5343 C.ar         1    LIG   0.0000
  32 C32         -1.8275     4.7839    -3.8797 C.ar         1    LIG   0.0000
  33 C33         -1.0120     5.9063    -3.7717 C.ar         1    LIG   0.0000
  34 C34          0.2975     5.7818    -3.3192 C.ar         1    LIG   0.0000
  35 C35          0.7983     4.5310    -2.9723 C.ar         1    LIG   0.0000
  36 H           -0.0206     1.3815    -3.2137 H            1    LIG   0.0000
  37 H           -2.7383     3.9710     0.9880 H            1    LIG   0.0000
  38 H           -3.2686     3.0980    -0.2861 H            1    LIG   0.0000
  39 H           -2.8207     2.3433     1.0910 H            1    LIG   0.0000
  40 H            0.0377     1.1925     1.1925 H            1    LIG   0.0000
  41 H            1.1925     0.0377     1.1925 H            1    LIG   0.0000
  42 H            2.4909     2.4909     1.4303 H            1    LIG   0.0000
  43 H            0.2861     0.2850     3.2504 H            1    LIG   0.0000
  44 H            0.1393     0.1450     5.6359 H            1    LIG   0.0000
  45 H            1.5254     1.5271     7.0005 H            1    LIG   0.0000
  46 H            3.0624     3.0644     6.0010 H            1    LIG   0.0000
  47 H            3.8616     3.2469     2.5560 H            1    LIG   0.0000
  48 H            5.5529     5.7224     4.0402 H            1    LIG   0.0000
  49 H            4.3087     6.4777     3.2999 H            1    LIG   0.0000
  50 H            6.9141     3.9212     2.5829 H            1    LIG   0.0000
  51 H            7.1862     3.3166     0.1765 H            1    LIG   0.0000
  52 H            5.4679     4.2798    -1.3586 H            1    LIG   0.0000
  53 H            3.2870     0.4240     0.8527 H            1    LIG   0.0000
  54 H            4.0151    -0.2746    -0.4313 H            1    LIG   0.0000
  55 H            4.3969     1.2560    -0.0090 H            1    LIG   0.0000
  56 H            2.1600     2.0796    -4.0903 H            1    LIG   0.0000
  57 H           -1.9166     2.7199    -3.6097 H            1    LIG   0.0000
  58 H           -2.7681     4.8790    -4.2056 H            1    LIG   0.0000
  59 H           -1.3690     6.8066    -4.0207 H            1    LIG   0.0000
  60 H            0.8791     6.5917    -3.2431 H            1    LIG   0.0000
  61 H            1.7391     4.4356    -2.6471 H            1    LIG   0.0000
@<TRIPOS>BOND
   1        1        2 1
   2        2        3 1
   3        3        4 2
   4        3        5 1
   5        5        6 2
   6        6        7 1
   7        7        8 1
   8        8        9 1
   9        9       10 ar
  10       10       11 ar
  11       11       12 ar
  12       12       13 ar
  13       13       14 ar
  14       14        9 ar
  15       14       15 1
  16       15       16 am
  17       16       17 2
  18       16       18 1
  19       18       19 1
  20       19       20 2
  21       20       21 1
  22       21       22 2
  23       22       23 1
  24       23       19 1
  25        6       24 1
  26       24       25 1
  27       24       26 am
  28       26       27 2
  29       26       28 am
  30       28       29 1
  31       29        5 1
  32       29       30 1
  33       30       31 ar
  34       31       32 ar
  35       32       33 ar
  36       33       34 ar
  37       34       35 ar
  38       35       30 ar
  39       29       36 1
  40        1       37 1
  41        1       38 1
  42        1       39 1
  43        7       40 1
  44        7       41 1
  45        8       42 1
  46       10       43 1
  47       11       44 1
  48       12       45 1
  49       13       46 1
  50       15       47 1
  51       18       48 1
  52       18       49 1
  53       20       50 1
  54       21       51 1
  55       22       52 1
  56       25       53 1
  57       25       54 1
  58       25       55 1
  59       28       56 1
  60       31       57 1
  61       32       58 1
  62       33       59 1
  63       34       60 1
  64       35       61 1

@<TRIPOS>MOLECULE

  61   64
SMALL
USER_CHARGES
@<TRIPOS>ATOM
   1 C1           1.1985    -3.1092     0.0044 C.3          1    LIG   0.0000
   2 O2           0.8998    -1.8289    -0.5323 O.3          1    LIG   0.0000
   3 C3           1.9256    -1.0291    -0.6875 C.2          1    LIG   0.0000
   4 O4           3.0258    -1.3982    -0.3822 O.2          1    LIG   0.0000
   5 C5           1.7314     0.3033    -1.2288 C.2          1    LIG   0.0000
   6 C6           1.2924     1.2924    -0.4618 C.2          1    LIG   0.0000
   7 C7           1.0000     1.0000     1.0000 C.3          1    LIG   0.0000
   8 N8           1.8487     1.8487     1.8487 N.pl3        1    LIG   0.0000
   9 C9           1.7579     1.7579     3.2424 C.ar         1    LIG   0.0000
  10 C10          0.8643     0.8647     3.8245 C.ar         1    LIG   0.0000
  11 C11          0.7805     0.7835     5.2104 C.ar         1    LIG   0.0000
  12 C12          1.5886     1.5906     6.0045 C.ar         1    LIG   0.0000
  13 C13          2.4836     2.4851     5.4271 C.ar         1    LIG   0.0000
  14 C14          2.5628     2.5628     4.0407 C.ar         1    LIG   0.0000
  15 N15          3.4598     3.4584     3.4470 N.am         1    LIG   0.0000
  16 C16          3.7874     4.6249     4.0866 C.2          1    LIG   0.0000
  17 O17          3.3053     4.8787     5.1558 O.2          1    LIG   0.0000
  18 C18          4.7615     5.5975     3.4419 C.3          1    LIG   0.0000
  19 C19          5.2201     5.0429     2.1054 C.2          1    LIG   0.0000
  20 C20          6.2933     4.2399     1.8666 C.2          1    LIG   0.0000
  21 C21          6.4401     3.9016     0.4944 C.2          1    LIG   0.0000
  22 C22          5.5161     4.4120    -0.3685 C.2          1    LIG   0.0000
  23 S23          4.4631     5.3232     0.6094 S.3          1    LIG   0.0000
  24 N24          1.0822     2.5940    -0.9425 N.am         1    LIG   0.0000
  25 C25          0.6142     3.6662    -0.0542 C.3          1    LIG   0.0000
  26 C26          1.3125     2.8855    -2.2943 C.2          1    LIG   0.0000
  27 O27          1.1252     4.0050    -2.7420 O.2          1    LIG   0.0000
  28 N28          1.7668     1.8911    -3.1694 N.am         1    LIG   0.0000
  29 C29          2.0429     0.5221    -2.7053 C.3          1    LIG   0.0000
  30 C30          1.3918    -0.5299    -3.5887 C.ar         1    LIG   0.0000
  31 C31          2.0854    -1.6960    -3.8955 C.ar         1    LIG   0.0000
  32 C32          1.4824    -2.6529    -4.7050 C.ar         1    LIG   0.0000
  33 C33          0.1990    -2.4388    -5.1985 C.ar         1    LIG   0.0000
  34 C34         -0.4874    -1.2698    -4.8865 C.ar         1    LIG   0.0000
  35 C35          0.1088    -0.3072    -4.0779 C.ar         1    LIG   0.0000
  36 H            3.0296     0.3915    -2.8016 H            1    LIG   0.0000
  37 H            0.3561    -3.6421     0.0842 H            1    LIG   0.0000
  38 H            1.8370    -3.5839    -0.6014 H            1    LIG   0.0000
  39 H            1.6128    -3.0033     0.9084 H            1    LIG   0.0000
  40 H            0.0377     1.1925     1.1925 H            1    LIG   0.0000
  41 H            1.1925     0.0377     1.1925 H            1    LIG   0.0000
  42 H            2.4909     2.4909     1.4303 H            1    LIG   0.0000
  43 H            0.2861     0.2850     3.2504 H            1    LIG   0.0000
  44 H            0.1393     0.1450     5.6359 H            1    LIG   0.0000
  45 H            1.5254     1.5271     7.0005 H            1    LIG   0.0000
  46 H            3.0624     3.0644     6.0010 H            1    LIG   0.0000
  47 H            3.8616     3.2469     2.5560 H            1    LIG   0.0000
  48 H            5.5529     5.7224     4.0402 H            1    LIG   0.0000
  49 H            4.3087     6.4777     3.2999 H            1    LIG   0.0000
  50 H            6.9141     3.9212     2.5829 H            1    LIG   0.0000
  51 H            7.1862     3.3166     0.1765 H            1    LIG   0.0000
  52 H            5.4679     4.2798    -1.3586 H            1    LIG   0.0000
  53 H            0.4971     3.3052     0.8710 H            1    LIG   0.0000
  54 H            1.2874     4.4056    -0.0408 H            1    LIG   0.0000
  55 H           -0.2604     4.0178    -0.3881 H            1    LIG   0.0000
  56 H            1.9071     2.1169    -4.1334 H            1    LIG   0.0000
  57 H            3.0073    -1.8447    -3.5379 H            1    LIG   0.0000
  58 H            1.9713    -3.4950    -4.9325 H            1    LIG   0.0000
  59 H           -0.2319    -3.1286    -5.7803 H            1    LIG   0.0000
  60 H           -1.4096    -1.1212    -5.2434 H            1    LIG   0.0000
  61 H           -0.3797     0.5353    -3.8509 H            1    LIG   0.0000
@<TRIPOS>BOND
   1        1        2 1
   2        2        3 1
   3        3        4 2
   4        3        5 1
   5        5        6 2
   6        6        7 1
   7        7        8 1
   8        8        9 1
   9        9       10 ar
  10       10       11 ar
  11       11       12 ar
  12       12       13 ar
  13       13       14 ar
  14       14        9 ar
  15       14       15 1
  16       15       16 am
  17       16       17 2
  18       16       18 1
  19       18       19 1
  20       19       20 2
  21       20       21 1
  22       21       22 2
  23       22       23 1
  24       23       19 1
  25        6       24 1
  26       24       25 1
  27       24       26 am
  28       26       27 2
  29       26       28 am
  30       28       29 1
  31       29        5 1
  32       29       30 1
  33       30       31 ar
  34       31       32 ar
  35       32       33 ar
  36       33       34 ar
  37       34       35 ar
  38       35       30 ar
  39       29       36 1
  40        1       37 1
  41        1       38 1
  42        1       39 1
  43        7       40 1
  44        7       41 1
  45        8       42 1
  46       10       43 1
  47       11       44 1
  48       12       45 1
  49       13       46 1
  50       15       47 1
  51       18       48 1
  52       18       49 1
  53       20       50 1
  54       21       51 1
  55       22       52 1
  56       25       53 1
  57       25       54 1
  58       25       55 1
  59       28       56 1
  60       31       57 1
  61       32       58 1
  62       33       59 1
  63       34       60 1
  64       35       61 1

@<TRIPOS>MOLECULE

  61   64
SMALL
USER_CHARGES
@<TRIPOS>ATOM
   1 C1          -2.6302     3.1144     0.4834 C.3          1    LIG   0.0000
   2 O2          -1.2998     3.0163    -0.0032 O.3          1    LIG   0.0000
   3 C3          -1.0275     1.9320    -0.6859 C.2          1    LIG   0.0000
   4 O4          -1.8785     1.1046    -0.8625 O.2          1    LIG   0.0000
   5 C5           0.3033     1.7314    -1.2288 C.2          1    LIG   0.0000
   6 C6           1.2924     1.2924    -0.4618 C.2          1    LIG   0.0000
   7 C7           1.0000     1.0000     1.0000 C.3          1    LIG   0.0000
   8 N8           1.8487     1.8487     1.8487 N.pl3        1    LIG   0.0000
   9 C9           1.7579     1.7579     3.2424 C.ar         1    LIG   0.0000
  10 C10          0.8643     0.8647     3.8245 C.ar         1    LIG   0.0000
  11 C11          0.7805     0.7835     5.2104 C.ar         1    LIG   0.0000
  12 C12          1.5886     1.5906     6.0045 C.ar         1    LIG   0.0000
  13 C13          2.4836     2.4851     5.4271 C.ar         1    LIG   0.0000
  14 C14          2.5628     2.5628     4.0407 C.ar         1    LIG   0.0000
  15 N15          3.4598     3.4584     3.4470 N.am         1    LIG   0.0000
  16 C16          4.8028     3.3479     3.6944 C.2          1    LIG   0.0000
  17 O17          5.5718     4.1158     3.1854 O.2          1    LIG   0.0000
  18 C18          5.3187     2.2528     4.6135 C.3          1    LIG   0.0000
  19 C19          6.8298     2.3502     4.7182 C.2          1    LIG   0.0000
  20 C20          7.7555     1.7407     3.9275 C.2          1    LIG   0.0000
  21 C21          9.0923     2.0454     4.3003 C.2          1    LIG   0.0000
  22 C22          9.2602     2.8794     5.3658 C.2          1    LIG   0.0000
  23 S23          7.6815     3.2633     5.8717 S.3          1    LIG   0.0000
  24 N24          2.5962     1.0909    -0.9403 N.am         1    LIG   0.0000
  25 C25          3.6586     0.5836    -0.0619 C.3          1    LIG   0.0000
  26 C26          2.9031     1.3830    -2.2766 C.2          1    LIG   0.0000
  27 O27          4.0312     1.2302    -2.7158 O.2          1    LIG   0.0000
  28 N28          1.9146     1.8606    -3.1460 N.am         1    LIG   0.0000
  29 C29          0.5234     2.0480    -2.7040 C.3          1    LIG   0.0000
  30 C30         -0.0242     3.4147    -3.0830 C.ar         1    LIG   0.0000
  31 C31          0.7091     4.5576    -2.7817 C.ar         1    LIG   0.0000
  32 C32          0.2003     5.8039    -3.1314 C.ar         1    LIG   0.0000
  33 C33         -1.0295     5.8981    -3.7758 C.ar         1    LIG   0.0000
  34 C34         -1.7560     4.7498    -4.0735 C.ar         1    LIG   0.0000
  35 C35         -1.2545     3.4993    -3.7266 C.ar         1    LIG   0.0000
  36 H           -0.0206     1.3815    -3.2137 H            1    LIG   0.0000
  37 H           -2.7383     3.9710     0.9880 H            1    LIG   0.0000
  38 H           -3.2686     3.0980    -0.2861 H            1    LIG   0.0000
  39 H           -2.8207     2.3433     1.0910 H            1    LIG   0.0000
  40 H            0.0377     1.1925     1.1925 H            1    LIG   0.0000
  41 H            1.1925     0.0377     1.1925 H            1    LIG   0.0000
  42 H            2.4909     2.4909     1.4303 H            1    LIG   0.0000
  43 H            0.2861     0.2850     3.2504 H            1    LIG   0.0000
  44 H            0.1393     0.1450     5.6359 H            1    LIG   0.0000
  45 H            1.5254     1.5271     7.0005 H            1    LIG   0.0000
  46 H            3.0624     3.0644     6.0010 H            1    LIG   0.0000
  47 H            3.1204     4.1790     2.8423 H            1    LIG   0.0000
  48 H            5.0673     1.3593     4.2413 H            1    LIG   0.0000
  49 H            4.9139     2.3615     5.5215 H            1    LIG   0.0000
  50 H            7.5190     1.1406     3.1633 H            1    LIG   0.0000
  51 H            9.8734     1.6660     3.8045 H            1    LIG   0.0000
  52 H           10.1217     3.1958     5.7628 H            1    LIG   0.0000
  53 H            3.2870     0.4240     0.8527 H            1    LIG   0.0000
  54 H            4.0151    -0.2746    -0.4313 H            1    LIG   0.0000
  55 H            4.3969     1.2560    -0.0090 H            1    LIG   0.0000
  56 H            2.1600     2.0796    -4.0903 H            1    LIG   0.0000
  57 H            1.5924     4.4840    -2.3187 H            1    LIG   0.0000
  58 H            0.7184     6.6326    -2.9197 H            1    LIG   0.0000
  59 H           -1.3927     6.7956    -4.0261 H            1    LIG   0.0000
  60 H           -2.6390     4.8232    -4.5371 H            1    LIG   0.0000
  61 H           -1.7728     2.6705    -3.9375 H            1    LIG   0.0000
@<TRIPOS>BOND
   1        1        2 1
   2        2        3 1
   3        3        4 2
   4        3        5 1
   5        5        6 2
   6        6        7 1
   7        7        8 1
   8        8        9 1
   9        9       10 ar
  10       10       11 ar
  11       11       12 ar
  12       12       13 ar
  13       13       14 ar
  14       14        9 ar
  15       14       15 1
  16       15       16 am
  17       16       17 2
  18       16       18 1
  19       18       19 1
  20       19       20 2
  21       20       21 1
  22       21       22 2
  23       22       23 1
  24       23       19 1
  25        6       24 1
  26       24       25 1
  27       24       26 am
  28       26       27 2
  29       26       28 am
  30       28       29 1
  31       29        5 1
  32       29       30 1
  33       30       31 ar
  34       31       32 ar
  35       32       33 ar
  36       33       34 ar
  37       34       35 ar
  38       35       30 ar
  39       29       36 1
  40        1       37 1
  41        1       38 1
  42        1       39 1
  43        7       40 1
  44        7       41 1
  45        8       42 1
  46       10       43 1
  47       11       44 1
  48       12       45 1
  49       13       46 1
  50       15       47 1
  51       18       48 1
  52       18       49 1
  53       20       50 1
  54       21       51 1
  55       22       52 1
  56       25       53 1
  57       25       54 1
  58       25       55 1
  59       28       56 1
  60       31       57 1
  61       32       58 1
  62       33       59 1
  63       34       60 1
  64       35       61 1

@<TRIPOS>MOLECULE

  61   64
SMALL
USER_CHARGES
@<TRIPOS>ATOM
   1 C1           1.1985    -3.1092     0.0044 C.3          1    LIG   0.0000
   2 O2           0.8998    -1.8289    -0.5323 O.3          1    LIG   0.0000
   3 C3           1.9256    -1.0291    -0.6875 C.2          1    LIG   0.0000
   4 O4           3.0258    -1.3982    -0.3822 O.2          1    LIG   0.0000
   5 C5           1.7314     0.3033    -1.2288 C.2          1    LIG   0.0000
   6 C6           1.2924     1.2924    -0.4618 C.2          1    LIG   0.0000
   7 C7           1.0000     1.0000     1.0000 C.3          1    LIG   0.0000
   8 N8           1.8487     1.8487     1.8487 N.pl3        1    LIG   0.0000
   9 C9           1.7579     1.7579     3.2424 C.ar         1    LIG   0.0000
  10 C10          0.5522     1.4044     3.8394 C.ar         1    LIG   0.0000
  11 C11          0.4720     1.3188     5.2251 C.ar         1    LIG   0.0000
  12 C12          1.5935     1.5836     6.0044 C.ar         1    LIG   0.0000
  13 C13          2.8012     1.9374     5.4121 C.ar         1    LIG   0.0000
  14 C14          2.8756     2.0223     4.0259 C.ar         1    LIG   0.0000
  15 N15          4.0853     2.3768     3.4173 N.am         1    LIG   0.0000
  16 C16          5.1999     1.6030     3.6066 C.2          1    LIG   0.0000
  17 O17          6.2369     1.9068     3.0848 O.2          1    LIG   0.0000
  18 C18          5.1229     0.3595     4.4774 C.3          1    LIG   0.0000
  19 C19          4.9953    -0.8690     3.5951 C.2          1    LIG   0.0000
  20 C20          3.8489    -1.4496     3.1452 C.2          1    LIG   0.0000
  21 C21          4.0857    -2.5931     2.3356 C.2          1    LIG   0.0000
  22 C22          5.3871    -2.9423     2.1274 C.2          1    LIG   0.0000
  23 S23          6.2917    -1.7811     2.9811 S.3          1    LIG   0.0000
  24 N24          1.0822     2.5940    -0.9425 N.am         1    LIG   0.0000
  25 C25          0.6142     3.6662    -0.0542 C.3          1    LIG   0.0000
  26 C26          1.3125     2.8855    -2.2943 C.2          1    LIG   0.0000
  27 O27          1.1252     4.0050    -2.7420 O.2          1    LIG   0.0000
  28 N28          1.7668     1.8911    -3.1694 N.am         1    LIG   0.0000
  29 C29          2.0429     0.5221    -2.7053 C.3          1    LIG   0.0000
  30 C30          1.3918    -0.5299    -3.5887 C.ar         1    LIG   0.0000
  31 C31          2.0854    -1.6960    -3.8955 C.ar         1    LIG   0.0000
  32 C32          1.4824    -2.6529    -4.7050 C.ar         1    LIG   0.0000
  33 C33          0.1990    -2.4388    -5.1985 C.ar         1    LIG   0.0000
  34 C34         -0.4874    -1.2698    -4.8865 C.ar         1    LIG   0.0000
  35 C35          0.1088    -0.3072    -4.0779 C.ar         1    LIG   0.0000
  36 H            3.0296     0.3915    -2.8016 H            1    LIG   0.0000
  37 H            0.3561    -3.6421     0.0842 H            1    LIG   0.0000
  38 H            1.8370    -3.5839    -0.6014 H            1    LIG   0.0000
  39 H            1.6128    -3.0033     0.9084 H            1    LIG   0.0000
  40 H            0.0377     1.1925     1.1925 H            1    LIG   0.0000
  41 H            1.1925     0.0377     1.1925 H            1    LIG   0.0000
  42 H            2.4909     2.4909     1.4303 H            1    LIG   0.0000
  43 H           -0.2515     1.2131     3.2759 H            1    LIG   0.0000
  44 H           -0.3918     1.0668     5.6614 H            1    LIG   0.0000
  45 H            1.5307     1.5191     7.0003 H            1    LIG   0.0000
  46 H            3.6052     2.1280     5.9753 H            1    LIG   0.0000
  47 H            4.1359     3.1948     2.8444 H            1    LIG   0.0000
  48 H            4.3262     0.4224     5.0786 H            1    LIG   0.0000
  49 H            5.9530     0.2880     5.0304 H            1    LIG   0.0000
  50 H            2.9349    -1.1068     3.3620 H            1    LIG   0.0000
  51 H            3.3329    -3.1173     1.9373 H            1    LIG   0.0000
  52 H            5.7337    -3.7117     1.5909 H            1    LIG   0.0000
  53 H            0.4971     3.3052     0.8710 H            1    LIG   0.0000
  54 H            1.2874     4.4056    -0.0408 H            1    LIG   0.0000
  55 H           -0.2604     4.0178    -0.3881 H            1    LIG   0.0000
  56 H            1.9071     2.1169    -4.1334 H            1    LIG   0.0000
  57 H            3.0073    -1.8447    -3.5379 H            1    LIG   0.0000
  58 H            1.9713    -3.4950    -4.9325 H            1    LIG   0.0000
  59 H           -0.2319    -3.1286    -5.7803 H            1    LIG   0.0000
  60 H           -1.4096    -1.1212    -5.2434 H            1    LIG   0.0000
  61 H           -0.3797     0.5353    -3.8509 H            1    LIG   0.0000
@<TRIPOS>BOND
   1        1        2 1
   2        2        3 1
   3        3        4 2
   4        3        5 1
   5        5        6 2
   6        6        7 1
   7        7        8 1
   8        8        9 1
   9        9       10 ar
  10       10       11 ar
  11       11       12 ar
  12       12       13 ar
  13       13       14 ar
  14       14        9 ar
  15       14       15 1
  16       15       16 am
  17       16       17 2
  18       16       18 1
  19       18       19 1
  20       19       20 2
  21       20       21 1
  22       21       22 2
  23       22       23 1
  24       23       19 1
  25        6       24 1
  26       24       25 1
  27       24       26 am
  28       26       27 2
  29       26       28 am
  30       28       29 1
  31       29        5 1
  32       29       30 1
  33       30       31 ar
  34       31       32 ar
  35       32       33 ar
  36       33       34 ar
  37       34       35 ar
  38       35       30 ar
  39       29       36 1
  40        1       37 1
  41        1       38 1
  42        1       39 1
  43        7       40 1
  44        7       41 1
  45        8       42 1
  46       10       43 1
  47       11       44 1
  48       12       45 1
  49       13       46 1
  50       15       47 1
  51       18       48 1
  52       18       49 1
  53       20       50 1
  54       21       51 1
  55       22       52 1
  56       25       53 1
  57       25       54 1
  58       25       55 1
  59       28       56 1
  60       31       57 1
  61       32       58 1
  62       33       59 1
  63       34       60 1
  64       35       61 1

@<TRIPOS>MOLECULE

  61   64
SMALL
USER_CHARGES
@<TRIPOS>ATOM
   1 C1           1.1985    -3.1092     0.0044 C.3          1    LIG   0.0000
   2 O2           0.8998    -1.8289    -0.5323 O.3          1    LIG   0.0000
   3 C3           1.9256    -1.0291    -0.6875 C.2          1    LIG   0.0000
   4 O4           3.0258    -1.3982    -0.3822 O.2          1    LIG   0.0000
   5 C5           1.7314     0.3033    -1.2288 C.2          1    LIG   0.0000
   6 C6           1.2924     1.2924    -0.4618 C.2          1    LIG   0.0000
   7 C7           1.0000     1.0000     1.0000 C.3          1    LIG   0.0000
   8 N8           1.8487     1.8487     1.8487 N.pl3        1    LIG   0.0000
   9 C9           1.7579     1.7579     3.2424 C.ar         1    LIG   0.0000
  10 C10          2.0261     0.5509     3.8798 C.ar         1    LIG   0.0000
  11 C11          1.9312     0.4707     5.2649 C.ar         1    LIG   0.0000
  12 C12          1.5724     1.5935     6.0037 C.ar         1    LIG   0.0000
  13 C13          1.3034     2.8026     5.3709 C.ar         1    LIG   0.0000
  14 C14          1.3990     2.8769     3.9853 C.ar         1    LIG   0.0000
  15 N15          1.1314     4.0879     3.3363 N.am         1    LIG   0.0000
  16 C16          2.1019     4.6875     2.5776 C.2          1    LIG   0.0000
  17 O17          3.1813     4.1744     2.4694 O.2          1    LIG   0.0000
  18 C18          1.8113     6.0025     1.8728 C.3          1    LIG   0.0000
  19 C19          0.3861     6.4318     2.1703 C.2          1    LIG   0.0000
  20 C20         -0.7360     6.1233     1.4637 C.2          1    LIG   0.0000
  21 C21         -1.9151     6.6908     2.0173 C.2          1    LIG   0.0000
  22 C22         -1.7665     7.4437     3.1443 C.2          1    LIG   0.0000
  23 S23         -0.0982     7.4052     3.4771 S.3          1    LIG   0.0000
  24 N24          1.0822     2.5940    -0.9425 N.am         1    LIG   0.0000
  25 C25          0.6142     3.6662    -0.0542 C.3          1    LIG   0.0000
  26 C26          1.3125     2.8855    -2.2943 C.2          1    LIG   0.0000
  27 O27          1.1252     4.0050    -2.7420 O.2          1    LIG   0.0000
  28 N28          1.7668     1.8911    -3.1694 N.am         1    LIG   0.0000
  29 C29          2.0429     0.5221    -2.7053 C.3          1    LIG   0.0000
  30 C30          1.3918    -0.5299    -3.5887 C.ar         1    LIG   0.0000
  31 C31          2.0854    -1.6960    -3.8955 C.ar         1    LIG   0.0000
  32 C32          1.4824    -2.6529    -4.7050 C.ar         1    LIG   0.0000
  33 C33          0.1990    -2.4388    -5.1985 C.ar         1    LIG   0.0000
  34 C34         -0.4874    -1.2698    -4.8865 C.ar         1    LIG   0.0000
  35 C35          0.1088    -0.3072    -4.0779 C.ar         1    LIG   0.0000
  36 H            3.0296     0.3915    -2.8016 H            1    LIG   0.0000
  37 H            0.3561    -3.6421     0.0842 H            1    LIG   0.0000
  38 H            1.8370    -3.5839    -0.6014 H            1    LIG   0.0000
  39 H            1.6128    -3.0033     0.9084 H            1    LIG   0.0000
  40 H            0.0377     1.1925     1.1925 H            1    LIG   0.0000
  41 H            1.1925     0.0377     1.1925 H            1    LIG   0.0000
  42 H            2.4909     2.4909     1.4303 H            1    LIG   0.0000
  43 H            2.2853    -0.2538     3.3456 H            1    LIG   0.0000
  44 H            2.1209    -0.3941     5.7299 H            1    LIG   0.0000
  45 H            1.5072     1.5307     6.9996 H            1    LIG   0.0000
  46 H            1.0448     3.6075     5.9049 H            1    LIG   0.0000
  47 H            0.2319     4.5154     3.4265 H            1    LIG   0.0000
  48 H            1.9248     5.8841     0.8863 H            1    LIG   0.0000
  49 H            2.4456     6.7031     2.1996 H            1    LIG   0.0000
  50 H           -0.7309     5.5560     0.6402 H            1    LIG   0.0000
  51 H           -2.8121     6.5448     1.6000 H            1    LIG   0.0000
  52 H           -2.4808     7.9150     3.6615 H            1    LIG   0.0000
  53 H            0.4971     3.3052     0.8710 H            1    LIG   0.0000
  54 H            1.2874     4.4056    -0.0408 H            1    LIG   0.0000
  55 H           -0.2604     4.0178    -0.3881 H            1    LIG   0.0000
  56 H            1.9071     2.1169    -4.1334 H            1    LIG   0.0000
  57 H            3.0073    -1.8447    -3.5379 H            1    LIG   0.0000
  58 H            1.9713    -3.4950    -4.9325 H            1    LIG   0.0000
  59 H           -0.2319    -3.1286    -5.7803 H            1    LIG   0.0000
  60 H           -1.4096    -1.1212    -5.2434 H            1    LIG   0.0000
  61 H           -0.3797     0.5353    -3.8509 H            1    LIG   0.0000
@<TRIPOS>BOND
   1        1        2 1
   2        2        3 1
   3        3        4 2
   4        3        5 1
   5        5        6 2
   6        6        7 1
   7        7        8 1
   8        8        9 1
   9        9       10 ar
  10       10       11 ar
  11       11       12 ar
  12       12       13 ar
  13       13       14 ar
  14       14        9 ar
  15       14       15 1
  16       15       16 am
  17       16       17 2
  18       16       18 1
  19       18       19 1
  20       19       20 2
  21       20       21 1
  22       21       22 2
  23       22       23 1
  24       23       19 1
  25        6       24 1
  26       24       25 1
  27       24       26 am
  28       26       27 2
  29       26       28 am
  30       28       29 1
  31       29        5 1
  32       29       30 1
  33       30       31 ar
  34       31       32 ar
  35       32       33 ar
  36       33       34 ar
  37       34       35 ar
  38       35       30 ar
  39       29       36 1
  40        1       37 1
  41        1       38 1
  42        1       39 1
  43        7       40 1
  44        7       41 1
  45        8       42 1
  46       10       43 1
  47       11       44 1
  48       12       45 1
  49       13       46 1
  50       15       47 1
  51       18       48 1
  52       18       49 1
  53       20       50 1
  54       21       51 1
  55       22       52 1
  56       25       53 1
  57       25       54 1
  58       25       55 1
  59       28       56 1
  60       31       57 1
  61       32       58 1
  62       33       59 1
  63       34       60 1
  64       35       61 1

@<TRIPOS>MOLECULE

  61   64
SMALL
USER_CHARGES
@<TRIPOS>ATOM
   1 C1          -3.1086     1.2143     0.0127 C.3          1    LIG   0.0000
   2 O2          -1.8303     0.9093    -0.5251 O.3          1    LIG   0.0000
   3 C3          -1.0275     1.9320    -0.6859 C.2          1    LIG   0.0000
   4 O4          -1.3926     3.0346    -0.3844 O.2          1    LIG   0.0000
   5 C5           0.3033     1.7314    -1.2288 C.2          1    LIG   0.0000
   6 C6           1.2924     1.2924    -0.4618 C.2          1    LIG   0.0000
   7 C7           1.0000     1.0000     1.0000 C.3          1    LIG   0.0000
   8 N8           1.8487     1.8487     1.8487 N.pl3        1    LIG   0.0000
   9 C9           1.3956     3.1098     2.2527 C.ar         1    LIG   0.0000
  10 C10          0.1424     3.5603     1.8509 C.ar         1    LIG   0.0000
  11 C11         -0.2977     4.8157     2.2564 C.ar         1    LIG   0.0000
  12 C12          0.5128     5.6108     3.0601 C.ar         1    LIG   0.0000
  13 C13          1.7667     5.1646     3.4644 C.ar         1    LIG   0.0000
  14 C14          2.2022     3.9087     3.0554 C.ar         1    LIG   0.0000
  15 N15          3.4617     3.4477     3.4559 N.am         1    LIG   0.0000
  16 C16          4.4770     4.3390     3.6828 C.2          1    LIG   0.0000
  17 O17          4.2866     5.5150     3.5382 O.2          1    LIG   0.0000
  18 C18          5.8448     3.8384     4.1176 C.3          1    LIG   0.0000
  19 C19          5.8188     2.3245     4.2251 C.2          1    LIG   0.0000
  20 C20          5.5035     1.5775     5.3188 C.2          1    LIG   0.0000
  21 C21          5.5792     0.1793     5.0777 C.2          1    LIG   0.0000
  22 C22          5.9465    -0.2110     3.8240 C.2          1    LIG   0.0000
  23 S23          6.1867     1.2403     2.9686 S.3          1    LIG   0.0000
  24 N24          2.5962     1.0909    -0.9403 N.am         1    LIG   0.0000
  25 C25          3.6586     0.5836    -0.0619 C.3          1    LIG   0.0000
  26 C26          2.9031     1.3830    -2.2766 C.2          1    LIG   0.0000
  27 O27          4.0312     1.2302    -2.7158 O.2          1    LIG   0.0000
  28 N28          1.9146     1.8606    -3.1460 N.am         1    LIG   0.0000
  29 C29          0.5234     2.0480    -2.7040 C.3          1    LIG   0.0000
  30 C30         -0.0242     3.4147    -3.0830 C.ar         1    LIG   0.0000
  31 C31         -1.3349     3.5298    -3.5343 C.ar         1    LIG   0.0000
  32 C32         -1.8275     4.7839    -3.8797 C.ar         1    LIG   0.0000
  33 C33         -1.0120     5.9063    -3.7717 C.ar         1    LIG   0.0000
  34 C34          0.2975     5.7818    -3.3192 C.ar         1    LIG   0.0000
  35 C35          0.7983     4.5310    -2.9723 C.ar         1    LIG   0.0000
  36 H           -0.0206     1.3815    -3.2137 H            1    LIG   0.0000
  37 H           -3.6440     0.3739     0.0969 H            1    LIG   0.0000
  38 H           -2.9997     1.6320     0.9148 H            1    LIG   0.0000
  39 H           -3.5824     1.8519    -0.5948 H            1    LIG   0.0000
  40 H            0.0377     1.1925     1.1925 H            1    LIG   0.0000
  41 H            1.1925     0.0377     1.1925 H            1    LIG   0.0000
  42 H            2.7498     1.5250     2.1374 H            1    LIG   0.0000
  43 H           -0.4382     2.9853     1.2745 H            1    LIG   0.0000
  44 H           -1.1968     5.1469     1.9701 H            1    LIG   0.0000
  45 H            0.1909     6.5120     3.3500 H            1    LIG   0.0000
  46 H            2.3472     5.7392     4.0414 H            1    LIG   0.0000
  47 H            3.6204     2.4678     3.5764 H            1    LIG   0.0000
  48 H            6.0763     4.2318     5.0073 H            1    LIG   0.0000
  49 H            6.5302     4.1130     3.4432 H            1    LIG   0.0000
  50 H            5.2454     1.9721     6.2007 H            1    LIG   0.0000
  51 H            5.3727    -0.4873     5.7939 H            1    LIG   0.0000
  52 H            6.0517    -1.1449     3.4823 H            1    LIG   0.0000
  53 H            3.2870     0.4240     0.8527 H            1    LIG   0.0000
  54 H            4.0151    -0.2746    -0.4313 H            1    LIG   0.0000
  55 H            4.3969     1.2560    -0.0090 H            1    LIG   0.0000
  56 H            2.1600     2.0796    -4.0903 H            1    LIG   0.0000
  57 H           -1.9166     2.7199    -3.6097 H            1    LIG   0.0000
  58 H           -2.7681     4.8790    -4.2056 H            1    LIG   0.0000
  59 H           -1.3690     6.8066    -4.0207 H            1    LIG   0.0000
  60 H            0.8791     6.5917    -3.2431 H            1    LIG   0.0000
  61 H            1.7391     4.4356    -2.6471 H            1    LIG   0.0000
@<TRIPOS>BOND
   1        1        2 1
   2        2        3 1
   3        3        4 2
   4        3        5 1
   5        5        6 2
   6        6        7 1
   7        7        8 1
   8        8        9 1
   9        9       10 ar
  10       10       11 ar
  11       11       12 ar
  12       12       13 ar
  13       13       14 ar
  14       14        9 ar
  15       14       15 1
  16       15       16 am
  17       16       17 2
  18       16       18 1
  19       18       19 1
  20       19       20 2
  21       20       21 1
  22       21       22 2
  23       22       23 1
  24       23       19 1
  25        6       24 1
  26       24       25 1
  27       24       26 am
  28       26       27 2
  29       26       28 am
  30       28       29 1
  31       29        5 1
  32       29       30 1
  33       30       31 ar
  34       31       32 ar
  35       32       33 ar
  36       33       34 ar
  37       34       35 ar
  38       35       30 ar
  39       29       36 1
  40        1       37 1
  41        1       38 1
  42        1       39 1
  43        7       40 1
  44        7       41 1
  45        8       42 1
  46       10       43 1
  47       11       44 1
  48       12       45 1
  49       13       46 1
  50       15       47 1
  51       18       48 1
  52       18       49 1
  53       20       50 1
  54       21       51 1
  55       22       52 1
  56       25       53 1
  57       25       54 1
  58       25       55 1
  59       28       56 1
  60       31       57 1
  61       32       58 1
  62       33       59 1
  63       34       60 1
  64       35       61 1

@<TRIPOS>MOLECULE

  61   64
SMALL
USER_CHARGES
@<TRIPOS>ATOM
   1 C1          -3.1086     1.2143     0.0127 C.3          1    LIG   0.0000
   2 O2          -1.8303     0.9093    -0.5251 O.3          1    LIG   0.0000
   3 C3          -1.0275     1.9320    -0.6859 C.2          1    LIG   0.0000
   4 O4          -1.3926     3.0346    -0.3844 O.2          1    LIG   0.0000
   5 C5           0.3033     1.7314    -1.2288 C.2          1    LIG   0.0000
   6 C6           1.2924     1.2924    -0.4618 C.2          1    LIG   0.0000
   7 C7           1.0000     1.0000     1.0000 C.3          1    LIG   0.0000
   8 N8           1.8487     1.8487     1.8487 N.pl3        1    LIG   0.0000
   9 C9           1.3956     3.1098     2.2527 C.ar         1    LIG   0.0000
  10 C10          0.1424     3.5603     1.8509 C.ar         1    LIG   0.0000
  11 C11         -0.2977     4.8157     2.2564 C.ar         1    LIG   0.0000
  12 C12          0.5128     5.6108     3.0601 C.ar         1    LIG   0.0000
  13 C13          1.7667     5.1646     3.4644 C.ar         1    LIG   0.0000
  14 C14          2.2022     3.9087     3.0554 C.ar         1    LIG   0.0000
  15 N15          3.4617     3.4477     3.4559 N.am         1    LIG   0.0000
  16 C16          3.7483     3.3084     4.7883 C.2          1    LIG   0.0000
  17 O17          4.8281     2.9132     5.1316 O.2          1    LIG   0.0000
  18 C18          2.6987     3.6545     5.8317 C.3          1    LIG   0.0000
  19 C19          3.2656     3.4136     7.2190 C.2          1    LIG   0.0000
  20 C20          3.2120     2.2645     7.9472 C.2          1    LIG   0.0000
  21 C21          3.8441     2.3794     9.2145 C.2          1    LIG   0.0000
  22 C22          4.3996     3.5867     9.5191 C.2          1    LIG   0.0000
  23 S23          4.0996     4.5606     8.1564 S.3          1    LIG   0.0000
  24 N24          2.5962     1.0909    -0.9403 N.am         1    LIG   0.0000
  25 C25          3.6586     0.5836    -0.0619 C.3          1    LIG   0.0000
  26 C26          2.9031     1.3830    -2.2766 C.2          1    LIG   0.0000
  27 O27          4.0312     1.2302    -2.7158 O.2          1    LIG   0.0000
  28 N28          1.9146     1.8606    -3.1460 N.am         1    LIG   0.0000
  29 C29          0.5234     2.0480    -2.7040 C.3          1    LIG   0.0000
  30 C30         -0.0242     3.4147    -3.0830 C.ar         1    LIG   0.0000
  31 C31          0.7091     4.5576    -2.7817 C.ar         1    LIG   0.0000
  32 C32          0.2003     5.8039    -3.1314 C.ar         1    LIG   0.0000
  33 C33         -1.0295     5.8981    -3.7758 C.ar         1    LIG   0.0000
  34 C34         -1.7560     4.7498    -4.0735 C.ar         1    LIG   0.0000
  35 C35         -1.2545     3.4993    -3.7266 C.ar         1    LIG   0.0000
  36 H           -0.0206     1.3815    -3.2137 H            1    LIG   0.0000
  37 H           -3.6440     0.3739     0.0969 H            1    LIG   0.0000
  38 H           -2.9997     1.6320     0.9148 H            1    LIG   0.0000
  39 H           -3.5824     1.8519    -0.5948 H            1    LIG   0.0000
  40 H            0.0377     1.1925     1.1925 H            1    LIG   0.0000
  41 H            1.1925     0.0377     1.1925 H            1    LIG   0.0000
  42 H            2.7498     1.5250     2.1374 H            1    LIG   0.0000
  43 H           -0.4382     2.9853     1.2745 H            1    LIG   0.0000
  44 H           -1.1968     5.1469     1.9701 H            1    LIG   0.0000
  45 H            0.1909     6.5120     3.3500 H            1    LIG   0.0000
  46 H            2.3472     5.7392     4.0414 H            1    LIG   0.0000
  47 H            4.1523     3.2200     2.7694 H            1    LIG   0.0000
  48 H            1.8920     3.0791     5.6967 H            1    LIG   0.0000
  49 H            2.4412     4.6164     5.7393 H            1    LIG   0.0000
  50 H            2.7731     1.4262     7.6236 H            1    LIG   0.0000
  51 H            3.8800     1.6107     9.8531 H            1    LIG   0.0000
  52 H            4.8781     3.8435    10.3588 H            1    LIG   0.0000
  53 H            3.2870     0.4240     0.8527 H            1    LIG   0.0000
  54 H            4.0151    -0.2746    -0.4313 H            1    LIG   0.0000
  55 H            4.3969     1.2560    -0.0090 H            1    LIG   0.0000
  56 H            2.1600     2.0796    -4.0903 H            1    LIG   0.0000
  57 H            1.5924     4.4840    -2.3187 H            1    LIG   0.0000
  58 H            0.7184     6.6326    -2.9197 H            1    LIG   0.0000
  59 H           -1.3927     6.7956    -4.0261 H            1    LIG   0.0000
  60 H           -2.6390     4.8232    -4.5371 H            1    LIG   0.0000
  61 H           -1.7728     2.6705    -3.9375 H            1    LIG   0.0000
@<TRIPOS>BOND
   1        1        2 1
   2        2        3 1
   3        3        4 2
   4        3        5 1
   5        5        6 2
   6        6        7 1
   7        7        8 1
   8        8        9 1
   9        9       10 ar
  10       10       11 ar
  11       11       12 ar
  12       12       13 ar
  13       13       14 ar
  14       14        9 ar
  15       14       15 1
  16       15       16 am
  17       16       17 2
  18       16       18 1
  19       18       19 1
  20       19       20 2
  21       20       21 1
  22       21       22 2
  23       22       23 1
  24       23       19 1
  25        6       24 1
  26       24       25 1
  27       24       26 am
  28       26       27 2
  29       26       28 am
  30       28       29 1
  31       29        5 1
  32       29       30 1
  33       30       31 ar
  34       31       32 ar
  35       32       33 ar
  36       33       34 ar
  37       34       35 ar
  38       35       30 ar
  39       29       36 1
  40        1       37 1
  41        1       38 1
  42        1       39 1
  43        7       40 1
  44        7       41 1
  45        8       42 1
  46       10       43 1
  47       11       44 1
  48       12       45 1
  49       13       46 1
  50       15       47 1
  51       18       48 1
  52       18       49 1
  53       20       50 1
  54       21       51 1
  55       22       52 1
  56       25       53 1
  57       25       54 1
  58       25       55 1
  59       28       56 1
  60       31       57 1
  61       32       58 1
  62       33       59 1
  63       34       60 1
  64       35       61 1

@<TRIPOS>MOLECULE

  61   64
SMALL
USER_CHARGES
@<TRIPOS>ATOM
   1 C1          -3.1086     1.2143     0.0127 C.3          1    LIG   0.0000
   2 O2          -1.8303     0.9093    -0.5251 O.3          1    LIG   0.0000
   3 C3          -1.0275     1.9320    -0.6859 C.2          1    LIG   0.0000
   4 O4          -1.3926     3.0346    -0.3844 O.2          1    LIG   0.0000
   5 C5           0.3033     1.7314    -1.2288 C.2          1    LIG   0.0000
   6 C6           1.2924     1.2924    -0.4618 C.2          1    LIG   0.0000
   7 C7           1.0000     1.0000     1.0000 C.3          1    LIG   0.0000
   8 N8           1.8487     1.8487     1.8487 N.pl3        1    LIG   0.0000
   9 C9           1.3956     3.1098     2.2527 C.ar         1    LIG   0.0000
  10 C10          0.5261     3.8298     1.4399 C.ar         1    LIG   0.0000
  11 C11          0.0833     5.0828     1.8498 C.ar         1    LIG   0.0000
  12 C12          0.5082     5.6071     3.0662 C.ar         1    LIG   0.0000
  13 C13          1.3774     4.8909     3.8823 C.ar         1    LIG   0.0000
  14 C14          1.8178     3.6387     3.4672 C.ar         1    LIG   0.0000
  15 N15          2.6923     2.9074     4.2795 N.am         1    LIG   0.0000
  16 C16          2.3130     2.5499     5.5465 C.2          1    LIG   0.0000
  17 O17          3.0627     1.9230     6.2428 O.2          1    LIG   0.0000
  18 C18          0.9425     2.9473     6.0701 C.3          1    LIG   0.0000
  19 C19         -0.0036     1.7654     5.9595 C.2          1    LIG   0.0000
  20 C20         -0.8047     1.4418     4.9073 C.2          1    LIG   0.0000
  21 C21         -1.5696     0.2657     5.1320 C.2          1    LIG   0.0000
  22 C22         -1.4029    -0.3579     6.3330 C.2          1    LIG   0.0000
  23 S23         -0.2522     0.5859     7.1581 S.3          1    LIG   0.0000
  24 N24          2.5962     1.0909    -0.9403 N.am         1    LIG   0.0000
  25 C25          3.6586     0.5836    -0.0619 C.3          1    LIG   0.0000
  26 C26          2.9031     1.3830    -2.2766 C.2          1    LIG   0.0000
  27 O27          4.0312     1.2302    -2.7158 O.2          1    LIG   0.0000
  28 N28          1.9146     1.8606    -3.1460 N.am         1    LIG   0.0000
  29 C29          0.5234     2.0480    -2.7040 C.3          1    LIG   0.0000
  30 C30         -0.0242     3.4147    -3.0830 C.ar         1    LIG   0.0000
  31 C31         -1.3349     3.5298    -3.5343 C.ar         1    LIG   0.0000
  32 C32         -1.8275     4.7839    -3.8797 C.ar         1    LIG   0.0000
  33 C33         -1.0120     5.9063    -3.7717 C.ar         1    LIG   0.0000
  34 C34          0.2975     5.7818    -3.3192 C.ar         1    LIG   0.0000
  35 C35          0.7983     4.5310    -2.9723 C.ar         1    LIG   0.0000
  36 H           -0.0206     1.3815    -3.2137 H            1    LIG   0.0000
  37 H           -3.6440     0.3739     0.0969 H            1    LIG   0.0000
  38 H           -2.9997     1.6320     0.9148 H            1    LIG   0.0000
  39 H           -3.5824     1.8519    -0.5948 H            1    LIG   0.0000
  40 H            0.0377     1.1925     1.1925 H            1    LIG   0.0000
  41 H            1.1925     0.0377     1.1925 H            1    LIG   0.0000
  42 H            2.7498     1.5250     2.1374 H            1    LIG   0.0000
  43 H            0.2216     3.4490     0.5669 H            1    LIG   0.0000
  44 H           -0.5406     5.6069     1.2700 H            1    LIG   0.0000
  45 H            0.1854     6.5079     3.3568 H            1    LIG   0.0000
  46 H            1.6816     5.2712     4.7557 H            1    LIG   0.0000
  47 H            3.5940     2.6460     3.9350 H            1    LIG   0.0000
  48 H            0.5875     3.7101     5.5296 H            1    LIG   0.0000
  49 H            1.0191     3.2245     7.0278 H            1    LIG   0.0000
  50 H           -0.8500     1.9766     4.0635 H            1    LIG   0.0000
  51 H           -2.2006    -0.0881     4.4417 H            1    LIG   0.0000
  52 H           -1.8571    -1.1876     6.6576 H            1    LIG   0.0000
  53 H            3.2870     0.4240     0.8527 H            1    LIG   0.0000
  54 H            4.0151    -0.2746    -0.4313 H            1    LIG   0.0000
  55 H            4.3969     1.2560    -0.0090 H            1    LIG   0.0000
  56 H            2.1600     2.0796    -4.0903 H            1    LIG   0.0000
  57 H           -1.9166     2.7199    -3.6097 H            1    LIG   0.0000
  58 H           -2.7681     4.8790    -4.2056 H            1    LIG   0.0000
  59 H           -1.3690     6.8066    -4.0207 H            1    LIG   0.0000
  60 H            0.8791     6.5917    -3.2431 H            1    LIG   0.0000
  61 H            1.7391     4.4356    -2.6471 H            1    LIG   0.0000
@<TRIPOS>BOND
   1        1        2 1
   2        2        3 1
   3        3        4 2
   4        3        5 1
   5        5        6 2
   6        6        7 1
   7        7        8 1
   8        8        9 1
   9        9       10 ar
  10       10       11 ar
  11       11       12 ar
  12       12       13 ar
  13       13       14 ar
  14       14        9 ar
  15       14       15 1
  16       15       16 am
  17       16       17 2
  18       16       18 1
  19       18       19 1
  20       19       20 2
  21       20       21 1
  22       21       22 2
  23       22       23 1
  24       23       19 1
  25        6       24 1
  26       24       25 1
  27       24       26 am
  28       26       27 2
  29       26       28 am
  30       28       29 1
  31       29        5 1
  32       29       30 1
  33       30       31 ar
  34       31       32 ar
  35       32       33 ar
  36       33       34 ar
  37       34       35 ar
  38       35       30 ar
  39       29       36 1
  40        1       37 1
  41        1       38 1
  42        1       39 1
  43        7       40 1
  44        7       41 1
  45        8       42 1
  46       10       43 1
  47       11       44 1
  48       12       45 1
  49       13       46 1
  50       15       47 1
  51       18       48 1
  52       18       49 1
  53       20       50 1
  54       21       51 1
  55       22       52 1
  56       25       53 1
  57       25       54 1
  58       25       55 1
  59       28       56 1
  60       31       57 1
  61       32       58 1
  62       33       59 1
  63       34       60 1
  64       35       61 1

@<TRIPOS>MOLECULE

  61   64
SMALL
USER_CHARGES
@<TRIPOS>ATOM
   1 C1          -3.1086     1.2143     0.0127 C.3          1    LIG   0.0000
   2 O2          -1.8303     0.9093    -0.5251 O.3          1    LIG   0.0000
   3 C3          -1.0275     1.9320    -0.6859 C.2          1    LIG   0.0000
   4 O4          -1.3926     3.0346    -0.3844 O.2          1    LIG   0.0000
   5 C5           0.3033     1.7314    -1.2288 C.2          1    LIG   0.0000
   6 C6           1.2924     1.2924    -0.4618 C.2          1    LIG   0.0000
   7 C7           1.0000     1.0000     1.0000 C.3          1    LIG   0.0000
   8 N8           1.8487     1.8487     1.8487 N.pl3        1    LIG   0.0000
   9 C9           1.3956     3.1098     2.2527 C.ar         1    LIG   0.0000
  10 C10          0.0341     3.3380     2.4234 C.ar         1    LIG   0.0000
  11 C11         -0.4059     4.5952     2.8234 C.ar         1    LIG   0.0000
  12 C12          0.5136     5.6136     3.0521 C.ar         1    LIG   0.0000
  13 C13          1.8760     5.3902     2.8828 C.ar         1    LIG   0.0000
  14 C14          2.3105     4.1314     2.4819 C.ar         1    LIG   0.0000
  15 N15          3.6789     3.8933     2.3086 N.am         1    LIG   0.0000
  16 C16          4.5084     4.9137     1.9242 C.2          1    LIG   0.0000
  17 O17          4.0618     6.0115     1.7362 O.2          1    LIG   0.0000
  18 C18          5.9944     4.6552     1.7359 C.3          1    LIG   0.0000
  19 C19          6.2947     4.4830     0.2580 C.2          1    LIG   0.0000
  20 C20          6.2840     3.3260    -0.4596 C.2          1    LIG   0.0000
  21 C21          6.6141     3.5177    -1.8283 C.2          1    LIG   0.0000
  22 C22          6.8887     4.7935    -2.2233 C.2          1    LIG   0.0000
  23 S23          6.7123     5.7330    -0.8156 S.3          1    LIG   0.0000
  24 N24          2.5962     1.0909    -0.9403 N.am         1    LIG   0.0000
  25 C25          3.6586     0.5836    -0.0619 C.3          1    LIG   0.0000
  26 C26          2.9031     1.3830    -2.2766 C.2          1    LIG   0.0000
  27 O27          4.0312     1.2302    -2.7158 O.2          1    LIG   0.0000
  28 N28          1.9146     1.8606    -3.1460 N.am         1    LIG   0.0000
  29 C29          0.5234     2.0480    -2.7040 C.3          1    LIG   0.0000
  30 C30         -0.0242     3.4147    -3.0830 C.ar         1    LIG   0.0000
  31 C31          0.7091     4.5576    -2.7817 C.ar         1    LIG   0.0000
  32 C32          0.2003     5.8039    -3.1314 C.ar         1    LIG   0.0000
  33 C33         -1.0295     5.8981    -3.7758 C.ar         1    LIG   0.0000
  34 C34         -1.7560     4.7498    -4.0735 C.ar         1    LIG   0.0000
  35 C35         -1.2545     3.4993    -3.7266 C.ar         1    LIG   0.0000
  36 H           -0.0206     1.3815    -3.2137 H            1    LIG   0.0000
  37 H           -3.6440     0.3739     0.0969 H            1    LIG   0.0000
  38 H           -2.9997     1.6320     0.9148 H            1    LIG   0.0000
  39 H           -3.5824     1.8519    -0.5948 H            1    LIG   0.0000
  40 H            0.0377     1.1925     1.1925 H            1    LIG   0.0000
  41 H            1.1925     0.0377     1.1925 H            1    LIG   0.0000
  42 H            2.7498     1.5250     2.1374 H            1    LIG   0.0000
  43 H           -0.6239     2.6030     2.2596 H            1    LIG   0.0000
  44 H           -1.3833     4.7671     2.9465 H            1    LIG   0.0000
  45 H            0.1920     6.5153     3.3410 H            1    LIG   0.0000
  46 H            2.5342     6.1249     3.0472 H            1    LIG   0.0000
  47 H            4.0511     2.9785     2.4652 H            1    LIG   0.0000
  48 H            6.2530     3.8238     2.2277 H            1    LIG   0.0000
  49 H            6.5155     5.4300     2.0939 H            1    LIG   0.0000
  50 H            6.0664     2.4336    -0.0643 H            1    LIG   0.0000
  51 H            6.6436     2.7528    -2.4717 H            1    LIG   0.0000
  52 H            7.1387     5.1079    -3.1390 H            1    LIG   0.0000
  53 H            3.2870     0.4240     0.8527 H            1    LIG   0.0000
  54 H            4.0151    -0.2746    -0.4313 H            1    LIG   0.0000
  55 H            4.3969     1.2560    -0.0090 H            1    LIG   0.0000
  56 H            2.1600     2.0796    -4.0903 H            1    LIG   0.0000
  57 H            1.5924     4.4840    -2.3187 H            1    LIG   0.0000
  58 H            0.7184     6.6326    -2.9197 H            1    LIG   0.0000
  59 H           -1.3927     6.7956    -4.0261 H            1    LIG   0.0000
  60 H           -2.6390     4.8232    -4.5371 H            1    LIG   0.0000
  61 H           -1.7728     2.6705    -3.9375 H            1    LIG   0.0000
@<TRIPOS>BOND
   1        1        2 1
   2        2        3 1
   3        3        4 2
   4        3        5 1
   5        5        6 2
   6        6        7 1
   7        7        8 1
   8        8        9 1
   9        9       10 ar
  10       10       11 ar
  11       11       12 ar
  12       12       13 ar
  13       13       14 ar
  14       14        9 ar
  15       14       15 1
  16       15       16 am
  17       16       17 2
  18       16       18 1
  19       18       19 1
  20       19       20 2
  21       20       21 1
  22       21       22 2
  23       22       23 1
  24       23       19 1
  25        6       24 1
  26       24       25 1
  27       24       26 am
  28       26       27 2
  29       26       28 am
  30       28       29 1
  31       29        5 1
  32       29       30 1
  33       30       31 ar
  34       31       32 ar
  35       32       33 ar
  36       33       34 ar
  37       34       35 ar
  38       35       30 ar
  39       29       36 1
  40        1       37 1
  41        1       38 1
  42        1       39 1
  43        7       40 1
  44        7       41 1
  45        8       42 1
  46       10       43 1
  47       11       44 1
  48       12       45 1
  49       13       46 1
  50       15       47 1
  51       18       48 1
  52       18       49 1
  53       20       50 1
  54       21       51 1
  55       22       52 1
  56       25       53 1
  57       25       54 1
  58       25       55 1
  59       28       56 1
  60       31       57 1
  61       32       58 1
  62       33       59 1
  63       34       60 1
  64       35       61 1

@<TRIPOS>MOLECULE

  61   64
SMALL
USER_CHARGES
@<TRIPOS>ATOM
   1 C1          -2.6302     3.1144     0.4834 C.3          1    LIG   0.0000
   2 O2          -1.2998     3.0163    -0.0032 O.3          1    LIG   0.0000
   3 C3          -1.0275     1.9320    -0.6859 C.2          1    LIG   0.0000
   4 O4          -1.8785     1.1046    -0.8625 O.2          1    LIG   0.0000
   5 C5           0.3033     1.7314    -1.2288 C.2          1    LIG   0.0000
   6 C6           1.2924     1.2924    -0.4618 C.2          1    LIG   0.0000
   7 C7           1.0000     1.0000     1.0000 C.3          1    LIG   0.0000
   8 N8           1.8487     1.8487     1.8487 N.pl3        1    LIG   0.0000
   9 C9           1.3956     3.1098     2.2527 C.ar         1    LIG   0.0000
  10 C10          2.1107     4.2507     1.9031 C.ar         1    LIG   0.0000
  11 C11          1.6530     5.4989     2.3111 C.ar         1    LIG   0.0000
  12 C12          0.4862     5.6007     3.0617 C.ar         1    LIG   0.0000
  13 C13         -0.2322     4.4628     3.4136 C.ar         1    LIG   0.0000
  14 C14          0.2305     3.2170     3.0037 C.ar         1    LIG   0.0000
  15 N15         -0.4835     2.0641     3.3507 N.am         1    LIG   0.0000
  16 C16         -1.8423     2.1234     3.5152 C.2          1    LIG   0.0000
  17 O17         -2.4204     3.1638     3.3617 O.2          1    LIG   0.0000
  18 C18         -2.6176     0.8715     3.8920 C.3          1    LIG   0.0000
  19 C19         -4.0932     1.2069     4.0110 C.2          1    LIG   0.0000
  20 C20         -4.7610     1.6210     5.1228 C.2          1    LIG   0.0000
  21 C21         -6.1438     1.8487     4.8882 C.2          1    LIG   0.0000
  22 C22         -6.5988     1.6274     3.6221 C.2          1    LIG   0.0000
  23 S23         -5.2271     1.1295     2.7469 S.3          1    LIG   0.0000
  24 N24          2.5962     1.0909    -0.9403 N.am         1    LIG   0.0000
  25 C25          3.6586     0.5836    -0.0619 C.3          1    LIG   0.0000
  26 C26          2.9031     1.3830    -2.2766 C.2          1    LIG   0.0000
  27 O27          4.0312     1.2302    -2.7158 O.2          1    LIG   0.0000
  28 N28          1.9146     1.8606    -3.1460 N.am         1    LIG   0.0000
  29 C29          0.5234     2.0480    -2.7040 C.3          1    LIG   0.0000
  30 C30         -0.0242     3.4147    -3.0830 C.ar         1    LIG   0.0000
  31 C31         -1.3349     3.5298    -3.5343 C.ar         1    LIG   0.0000
  32 C32         -1.8275     4.7839    -3.8797 C.ar         1    LIG   0.0000
  33 C33         -1.0120     5.9063    -3.7717 C.ar         1    LIG   0.0000
  34 C34          0.2975     5.7818    -3.3192 C.ar         1    LIG   0.0000
  35 C35          0.7983     4.5310    -2.9723 C.ar         1    LIG   0.0000
  36 H           -0.0206     1.3815    -3.2137 H            1    LIG   0.0000
  37 H           -2.7383     3.9710     0.9880 H            1    LIG   0.0000
  38 H           -3.2686     3.0980    -0.2861 H            1    LIG   0.0000
  39 H           -2.8207     2.3433     1.0910 H            1    LIG   0.0000
  40 H            0.0377     1.1925     1.1925 H            1    LIG   0.0000
  41 H            1.1925     0.0377     1.1925 H            1    LIG   0.0000
  42 H            2.7498     1.5250     2.1374 H            1    LIG   0.0000
  43 H            2.9482     4.1738     1.3621 H            1    LIG   0.0000
  44 H            2.1626     6.3234     2.0649 H            1    LIG   0.0000
  45 H            0.1607     6.5008     3.3512 H            1    LIG   0.0000
  46 H           -1.0700     4.5395     3.9541 H            1    LIG   0.0000
  47 H           -0.0017     1.1972     3.4786 H            1    LIG   0.0000
  48 H           -2.2832     0.5234     4.7678 H            1    LIG   0.0000
  49 H           -2.4899     0.1752     3.1858 H            1    LIG   0.0000
  50 H           -4.3236     1.7514     6.0126 H            1    LIG   0.0000
  51 H           -6.7547     2.1568     5.6175 H            1    LIG   0.0000
  52 H           -7.5333     1.7343     3.2825 H            1    LIG   0.0000
  53 H            3.2870     0.4240     0.8527 H            1    LIG   0.0000
  54 H            4.0151    -0.2746    -0.4313 H            1    LIG   0.0000
  55 H            4.3969     1.2560    -0.0090 H            1    LIG   0.0000
  56 H            2.1600     2.0796    -4.0903 H            1    LIG   0.0000
  57 H           -1.9166     2.7199    -3.6097 H            1    LIG   0.0000
  58 H           -2.7681     4.8790    -4.2056 H            1    LIG   0.0000
  59 H           -1.3690     6.8066    -4.0207 H            1    LIG   0.0000
  60 H            0.8791     6.5917    -3.2431 H            1    LIG   0.0000
  61 H            1.7391     4.4356    -2.6471 H            1    LIG   0.0000
@<TRIPOS>BOND
   1        1        2 1
   2        2        3 1
   3        3        4 2
   4        3        5 1
   5        5        6 2
   6        6        7 1
   7        7        8 1
   8        8        9 1
   9        9       10 ar
  10       10       11 ar
  11       11       12 ar
  12       12       13 ar
  13       13       14 ar
  14       14        9 ar
  15       14       15 1
  16       15       16 am
  17       16       17 2
  18       16       18 1
  19       18       19 1
  20       19       20 2
  21       20       21 1
  22       21       22 2
  23       22       23 1
  24       23       19 1
  25        6       24 1
  26       24       25 1
  27       24       26 am
  28       26       27 2
  29       26       28 am
  30       28       29 1
  31       29        5 1
  32       29       30 1
  33       30       31 ar
  34       31       32 ar
  35       32       33 ar
  36       33       34 ar
  37       34       35 ar
  38       35       30 ar
  39       29       36 1
  40        1       37 1
  41        1       38 1
  42        1       39 1
  43        7       40 1
  44        7       41 1
  45        8       42 1
  46       10       43 1
  47       11       44 1
  48       12       45 1
  49       13       46 1
  50       15       47 1
  51       18       48 1
  52       18       49 1
  53       20       50 1
  54       21       51 1
  55       22       52 1
  56       25       53 1
  57       25       54 1
  58       25       55 1
  59       28       56 1
  60       31       57 1
  61       32       58 1
  62       33       59 1
  63       34       60 1
  64       35       61 1

@<TRIPOS>MOLECULE

  61   64
SMALL
USER_CHARGES
@<TRIPOS>ATOM
   1 C1          -2.6302     3.1144     0.4834 C.3          1    LIG   0.0000
   2 O2          -1.2998     3.0163    -0.0032 O.3          1    LIG   0.0000
   3 C3          -1.0275     1.9320    -0.6859 C.2          1    LIG   0.0000
   4 O4          -1.8785     1.1046    -0.8625 O.2          1    LIG   0.0000
   5 C5           0.3033     1.7314    -1.2288 C.2          1    LIG   0.0000
   6 C6           1.2924     1.2924    -0.4618 C.2          1    LIG   0.0000
   7 C7           1.0000     1.0000     1.0000 C.3          1    LIG   0.0000
   8 N8           1.8487     1.8487     1.8487 N.pl3        1    LIG   0.0000
   9 C9           1.3956     3.1098     2.2527 C.ar         1    LIG   0.0000
  10 C10          2.1107     4.2507     1.9031 C.ar         1    LIG   0.0000
  11 C11          1.6530     5.4989     2.3111 C.ar         1    LIG   0.0000
  12 C12          0.4862     5.6007     3.0617 C.ar         1    LIG   0.0000
  13 C13         -0.2322     4.4628     3.4136 C.ar         1    LIG   0.0000
  14 C14          0.2305     3.2170     3.0037 C.ar         1    LIG   0.0000
  15 N15         -0.4835     2.0641     3.3507 N.am         1    LIG   0.0000
  16 C16         -1.8423     2.1234     3.5152 C.2          1    LIG   0.0000
  17 O17         -2.4204     3.1638     3.3617 O.2          1    LIG   0.0000
  18 C18         -2.6176     0.8715     3.8920 C.3          1    LIG   0.0000
  19 C19         -1.6581    -0.2973     4.0239 C.2          1    LIG   0.0000
  20 C20         -1.2711    -1.1647     3.0486 C.2          1    LIG   0.0000
  21 C21         -0.3572    -2.1495     3.5111 C.2          1    LIG   0.0000
  22 C22         -0.0047    -2.0937     4.8270 C.2          1    LIG   0.0000
  23 S23         -0.8596    -0.7613     5.4510 S.3          1    LIG   0.0000
  24 N24          2.5962     1.0909    -0.9403 N.am         1    LIG   0.0000
  25 C25          3.6586     0.5836    -0.0619 C.3          1    LIG   0.0000
  26 C26          2.9031     1.3830    -2.2766 C.2          1    LIG   0.0000
  27 O27          4.0312     1.2302    -2.7158 O.2          1    LIG   0.0000
  28 N28          1.9146     1.8606    -3.1460 N.am         1    LIG   0.0000
  29 C29          0.5234     2.0480    -2.7040 C.3          1    LIG   0.0000
  30 C30         -0.0242     3.4147    -3.0830 C.ar         1    LIG   0.0000
  31 C31         -1.3349     3.5298    -3.5343 C.ar         1    LIG   0.0000
  32 C32         -1.8275     4.7839    -3.8797 C.ar         1    LIG   0.0000
  33 C33         -1.0120     5.9063    -3.7717 C.ar         1    LIG   0.0000
  34 C34          0.2975     5.7818    -3.3192 C.ar         1    LIG   0.0000
  35 C35          0.7983     4.5310    -2.9723 C.ar         1    LIG   0.0000
  36 H           -0.0206     1.3815    -3.2137 H            1    LIG   0.0000
  37 H           -2.7383     3.9710     0.9880 H            1    LIG   0.0000
  38 H           -3.2686     3.0980    -0.2861 H            1    LIG   0.0000
  39 H           -2.8207     2.3433     1.0910 H            1    LIG   0.0000
  40 H            0.0377     1.1925     1.1925 H            1    LIG   0.0000
  41 H            1.1925     0.0377     1.1925 H            1    LIG   0.0000
  42 H            2.7498     1.5250     2.1374 H            1    LIG   0.0000
  43 H            2.9482     4.1738     1.3621 H            1    LIG   0.0000
  44 H            2.1626     6.3234     2.0649 H            1    LIG   0.0000
  45 H            0.1607     6.5008     3.3512 H            1    LIG   0.0000
  46 H           -1.0700     4.5395     3.9541 H            1    LIG   0.0000
  47 H           -0.0017     1.1972     3.4786 H            1    LIG   0.0000
  48 H           -3.2920     0.6706     3.1815 H            1    LIG   0.0000
  49 H           -3.0853     1.0188     4.7635 H            1    LIG   0.0000
  50 H           -1.5963    -1.1141     2.1043 H            1    LIG   0.0000
  51 H            0.0102    -2.8507     2.9001 H            1    LIG   0.0000
  52 H            0.6192    -2.7020     5.3176 H            1    LIG   0.0000
  53 H            3.2870     0.4240     0.8527 H            1    LIG   0.0000
  54 H            4.0151    -0.2746    -0.4313 H            1    LIG   0.0000
  55 H            4.3969     1.2560    -0.0090 H            1    LIG   0.0000
  56 H            2.1600     2.0796    -4.0903 H            1    LIG   0.0000
  57 H           -1.9166     2.7199    -3.6097 H            1    LIG   0.0000
  58 H           -2.7681     4.8790    -4.2056 H            1    LIG   0.0000
  59 H           -1.3690     6.8066    -4.0207 H            1    LIG   0.0000
  60 H            0.8791     6.5917    -3.2431 H            1    LIG   0.0000
  61 H            1.7391     4.4356    -2.6471 H            1    LIG   0.0000
@<TRIPOS>BOND
   1        1        2 1
   2        2        3 1
   3        3        4 2
   4        3        5 1
   5        5        6 2
   6        6        7 1
   7        7        8 1
   8        8        9 1
   9        9       10 ar
  10       10       11 ar
  11       11       12 ar
  12       12       13 ar
  13       13       14 ar
  14       14        9 ar
  15       14       15 1
  16       15       16 am
  17       16       17 2
  18       16       18 1
  19       18       19 1
  20       19       20 2
  21       20       21 1
  22       21       22 2
  23       22       23 1
  24       23       19 1
  25        6       24 1
  26       24       25 1
  27       24       26 am
  28       26       27 2
  29       26       28 am
  30       28       29 1
  31       29        5 1
  32       29       30 1
  33       30       31 ar
  34       31       32 ar
  35       32       33 ar
  36       33       34 ar
  37       34       35 ar
  38       35       30 ar
  39       29       36 1
  40        1       37 1
  41        1       38 1
  42        1       39 1
  43        7       40 1
  44        7       41 1
  45        8       42 1
  46       10       43 1
  47       11       44 1
  48       12       45 1
  49       13       46 1
  50       15       47 1
  51       18       48 1
  52       18       49 1
  53       20       50 1
  54       21       51 1
  55       22       52 1
  56       25       53 1
  57       25       54 1
  58       25       55 1
  59       28       56 1
  60       31       57 1
  61       32       58 1
  62       33       59 1
  63       34       60 1
  64       35       61 1

@<TRIPOS>MOLECULE

  61   64
SMALL
USER_CHARGES
@<TRIPOS>ATOM
   1 C1          -2.6302     3.1144     0.4834 C.3          1    LIG   0.0000
   2 O2          -1.2998     3.0163    -0.0032 O.3          1    LIG   0.0000
   3 C3          -1.0275     1.9320    -0.6859 C.2          1    LIG   0.0000
   4 O4          -1.8785     1.1046    -0.8625 O.2          1    LIG   0.0000
   5 C5           0.3033     1.7314    -1.2288 C.2          1    LIG   0.0000
   6 C6           1.2924     1.2924    -0.4618 C.2          1    LIG   0.0000
   7 C7           1.0000     1.0000     1.0000 C.3          1    LIG   0.0000
   8 N8           1.8487     1.8487     1.8487 N.pl3        1    LIG   0.0000
   9 C9           1.3956     3.1098     2.2527 C.ar         1    LIG   0.0000
  10 C10          1.0826     4.0744     1.3005 C.ar         1    LIG   0.0000
  11 C11          0.6350     5.3250     1.7125 C.ar         1    LIG   0.0000
  12 C12          0.5008     5.6037     3.0688 C.ar         1    LIG   0.0000
  13 C13          0.8125     4.6424     4.0245 C.ar         1    LIG   0.0000
  14 C14          1.2605     3.3937     3.6070 C.ar         1    LIG   0.0000
  15 N15          1.5770     2.4173     4.5588 N.am         1    LIG   0.0000
  16 C16          0.6189     1.9774     5.4336 C.2          1    LIG   0.0000
  17 O17         -0.4917     2.4292     5.3840 O.2          1    LIG   0.0000
  18 C18          0.9626     0.9172     6.4671 C.3          1    LIG   0.0000
  19 C19          2.4196     0.5185     6.3176 C.2          1    LIG   0.0000
  20 C20          3.4976     1.0743     6.9362 C.2          1    LIG   0.0000
  21 C21          4.7258     0.4602     6.5710 C.2          1    LIG   0.0000
  22 C22          4.6593    -0.5685     5.6786 C.2          1    LIG   0.0000
  23 S23          3.0030    -0.7317     5.3245 S.3          1    LIG   0.0000
  24 N24          2.5962     1.0909    -0.9403 N.am         1    LIG   0.0000
  25 C25          3.6586     0.5836    -0.0619 C.3          1    LIG   0.0000
  26 C26          2.9031     1.3830    -2.2766 C.2          1    LIG   0.0000
  27 O27          4.0312     1.2302    -2.7158 O.2          1    LIG   0.0000
  28 N28          1.9146     1.8606    -3.1460 N.am         1    LIG   0.0000
  29 C29          0.5234     2.0480    -2.7040 C.3          1    LIG   0.0000
  30 C30         -0.0242     3.4147    -3.0830 C.ar         1    LIG   0.0000
  31 C31          0.7091     4.5576    -2.7817 C.ar         1    LIG   0.0000
  32 C32          0.2003     5.8039    -3.1314 C.ar         1    LIG   0.0000
  33 C33         -1.0295     5.8981    -3.7758 C.ar         1    LIG   0.0000
  34 C34         -1.7560     4.7498    -4.0735 C.ar         1    LIG   0.0000
  35 C35         -1.2545     3.4993    -3.7266 C.ar         1    LIG   0.0000
  36 H           -0.0206     1.3815    -3.2137 H            1    LIG   0.0000
  37 H           -2.7383     3.9710     0.9880 H            1    LIG   0.0000
  38 H           -3.2686     3.0980    -0.2861 H            1    LIG   0.0000
  39 H           -2.8207     2.3433     1.0910 H            1    LIG   0.0000
  40 H            0.0377     1.1925     1.1925 H            1    LIG   0.0000
  41 H            1.1925     0.0377     1.1925 H            1    LIG   0.0000
  42 H            2.7498     1.5250     2.1374 H            1    LIG   0.0000
  43 H            1.1787     3.8699     0.3264 H            1    LIG   0.0000
  44 H            0.4095     6.0239     1.0338 H            1    LIG   0.0000
  45 H            0.1771     6.5040     3.3595 H            1    LIG   0.0000
  46 H            0.7159     4.8464     4.9987 H            1    LIG   0.0000
  47 H            2.5025     2.0408     4.6001 H            1    LIG   0.0000
  48 H            0.3816     0.1153     6.3279 H            1    LIG   0.0000
  49 H            0.8099     1.2842     7.3847 H            1    LIG   0.0000
  50 H            3.4319     1.8359     7.5809 H            1    LIG   0.0000
  51 H            5.5982     0.7680     6.9508 H            1    LIG   0.0000
  52 H            5.4173    -1.1084     5.3126 H            1    LIG   0.0000
  53 H            3.2870     0.4240     0.8527 H            1    LIG   0.0000
  54 H            4.0151    -0.2746    -0.4313 H            1    LIG   0.0000
  55 H            4.3969     1.2560    -0.0090 H            1    LIG   0.0000
  56 H            2.1600     2.0796    -4.0903 H            1    LIG   0.0000
  57 H            1.5924     4.4840    -2.3187 H            1    LIG   0.0000
  58 H            0.7184     6.6326    -2.9197 H            1    LIG   0.0000
  59 H           -1.3927     6.7956    -4.0261 H            1    LIG   0.0000
  60 H           -2.6390     4.8232    -4.5371 H            1    LIG   0.0000
  61 H           -1.7728     2.6705    -3.9375 H            1    LIG   0.0000
@<TRIPOS>BOND
   1        1        2 1
   2        2        3 1
   3        3        4 2
   4        3        5 1
   5        5        6 2
   6        6        7 1
   7        7        8 1
   8        8        9 1
   9        9       10 ar
  10       10       11 ar
  11       11       12 ar
  12       12       13 ar
  13       13       14 ar
  14       14        9 ar
  15       14       15 1
  16       15       16 am
  17       16       17 2
  18       16       18 1
  19       18       19 1
  20       19       20 2
  21       20       21 1
  22       21       22 2
  23       22       23 1
  24       23       19 1
  25        6       24 1
  26       24       25 1
  27       24       26 am
  28       26       27 2
  29       26       28 am
  30       28       29 1
  31       29        5 1
  32       29       30 1
  33       30       31 ar
  34       31       32 ar
  35       32       33 ar
  36       33       34 ar
  37       34       35 ar
  38       35       30 ar
  39       29       36 1
  40        1       37 1
  41        1       38 1
  42        1       39 1
  43        7       40 1
  44        7       41 1
  45        8       42 1
  46       10       43 1
  47       11       44 1
  48       12       45 1
  49       13       46 1
  50       15       47 1
  51       18       48 1
  52       18       49 1
  53       20       50 1
  54       21       51 1
  55       22       52 1
  56       25       53 1
  57       25       54 1
  58       25       55 1
  59       28       56 1
  60       31       57 1
  61       32       58 1
  62       33       59 1
  63       34       60 1
  64       35       61 1

