@<TRIPOS>MOLECULE
*****
 61 64 0 0 0
SMALL
USER_CHARGES

@<TRIPOS>ATOM
      1 C1          1.1985   -3.1092    0.0044 C.3     1  LIG1        0.0000
      2 O2          0.8998   -1.8289   -0.5323 O.3     1  LIG1        0.0000
      3 C3          1.9256   -1.0291   -0.6875 C.2     1  LIG1        0.0000
      4 O4          3.0258   -1.3982   -0.3822 O.2     1  LIG1        0.0000
      5 C5          1.7314    0.3033   -1.2288 C.2     1  LIG1        0.0000
      6 C6          1.2924    1.2924   -0.4618 C.2     1  LIG1        0.0000
      7 C7          1.0000    1.0000    1.0000 C.3     1  LIG1        0.0000
      8 N8          1.8487    1.8487    1.8487 N.pl3   1  LIG1        0.0000
      9 C9          1.7579    1.7579    3.2424 C.3     1  LIG1        0.0000
     10 C10         0.8643    0.8647    3.8245 C.3     1  LIG1        0.0000
     11 C11         0.7805    0.7835    5.2104 C.3     1  LIG1        0.0000
     12 C12         1.5886    1.5906    6.0045 C.3     1  LIG1        0.0000
     13 C13         2.4836    2.4851    5.4271 C.3     1  LIG1        0.0000
     14 C14         2.5628    2.5628    4.0407 C.3     1  LIG1        0.0000
     15 N15         3.4598    3.4584    3.4470 N.am    1  LIG1        0.0000
     16 C16         3.7874    4.6249    4.0866 C.2     1  LIG1        0.0000
     17 O17         3.3053    4.8787    5.1558 O.2     1  LIG1        0.0000
     18 C18         4.7615    5.5975    3.4419 C.3     1  LIG1        0.0000
     19 C19         5.2201    5.0429    2.1054 C.2     1  LIG1        0.0000
     20 C20         6.2933    4.2399    1.8666 C.2     1  LIG1        0.0000
     21 C21         6.4401    3.9016    0.4944 C.2     1  LIG1        0.0000
     22 C22         5.5161    4.4120   -0.3685 C.2     1  LIG1        0.0000
     23 S23         4.4631    5.3232    0.6094 S.3     1  LIG1        0.0000
     24 N24         1.0822    2.5940   -0.9425 N.am    1  LIG1        0.0000
     25 C25         0.6142    3.6662   -0.0542 C.3     1  LIG1        0.0000
     26 C26         1.3125    2.8855   -2.2943 C.2     1  LIG1        0.0000
     27 O27         1.1252    4.0050   -2.7420 O.2     1  LIG1        0.0000
     28 N28         1.7668    1.8911   -3.1694 N.am    1  LIG1        0.0000
     29 C29         2.0429    0.5221   -2.7053 C.3     1  LIG1        0.0000
     30 C30         1.3918   -0.5299   -3.5887 C.3     1  LIG1        0.0000
     31 C31         2.0854   -1.6960   -3.8955 C.3     1  LIG1        0.0000
     32 C32         1.4824   -2.6529   -4.7050 C.3     1  LIG1        0.0000
     33 C33         0.1990   -2.4388   -5.1985 C.3     1  LIG1        0.0000
     34 C34        -0.4874   -1.2698   -4.8865 C.3     1  LIG1        0.0000
     35 C35         0.1088   -0.3072   -4.0779 C.3     1  LIG1        0.0000
     36 H           3.0296    0.3915   -2.8016 H       1  LIG1        0.0000
     37 H           0.3561   -3.6421    0.0842 H       1  LIG1        0.0000
     38 H           1.8370   -3.5839   -0.6014 H       1  LIG1        0.0000
     39 H           1.6128   -3.0033    0.9084 H       1  LIG1        0.0000
     40 H           0.0377    1.1925    1.1925 H       1  LIG1        0.0000
     41 H           1.1925    0.0377    1.1925 H       1  LIG1        0.0000
     42 H           2.4909    2.4909    1.4303 H       1  LIG1        0.0000
     43 H           0.2861    0.2850    3.2504 H       1  LIG1        0.0000
     44 H           0.1393    0.1450    5.6359 H       1  LIG1        0.0000
     45 H           1.5254    1.5271    7.0005 H       1  LIG1        0.0000
     46 H           3.0624    3.0644    6.0010 H       1  LIG1        0.0000
     47 H           3.8616    3.2469    2.5560 H       1  LIG1        0.0000
     48 H           5.5529    5.7224    4.0402 H       1  LIG1        0.0000
     49 H           4.3087    6.4777    3.2999 H       1  LIG1        0.0000
     50 H           6.9141    3.9212    2.5829 H       1  LIG1        0.0000
     51 H           7.1862    3.3166    0.1765 H       1  LIG1        0.0000
     52 H           5.4679    4.2798   -1.3586 H       1  LIG1        0.0000
     53 H           0.4971    3.3052    0.8710 H       1  LIG1        0.0000
     54 H           1.2874    4.4056   -0.0408 H       1  LIG1        0.0000
     55 H          -0.2604    4.0178   -0.3881 H       1  LIG1        0.0000
     56 H           1.9071    2.1169   -4.1334 H       1  LIG1        0.0000
     57 H           3.0073   -1.8447   -3.5379 H       1  LIG1        0.0000
     58 H           1.9713   -3.4950   -4.9325 H       1  LIG1        0.0000
     59 H          -0.2319   -3.1286   -5.7803 H       1  LIG1        0.0000
     60 H          -1.4096   -1.1212   -5.2434 H       1  LIG1        0.0000
     61 H          -0.3797    0.5353   -3.8509 H       1  LIG1        0.0000
@<TRIPOS>BOND
     1     1     2    1
     2     2     3    1
     3     3     4    2
     4     3     5    1
     5     5     6    2
     6     6     7    1
     7     7     8    1
     8     8     9    1
     9     9    10   ar
    10    10    11   ar
    11    11    12   ar
    12    12    13   ar
    13    13    14   ar
    14    14     9   ar
    15    14    15    1
    16    15    16   am
    17    16    17    2
    18    16    18    1
    19    18    19    1
    20    19    20    2
    21    20    21    1
    22    21    22    2
    23    22    23    1
    24    23    19    1
    25     6    24    1
    26    24    25    1
    27    24    26   am
    28    26    27    2
    29    26    28   am
    30    28    29    1
    31    29     5    1
    32    29    30    1
    33    30    31   ar
    34    31    32   ar
    35    32    33   ar
    36    33    34   ar
    37    34    35   ar
    38    35    30   ar
    39    29    36    1
    40     1    37    1
    41     1    38    1
    42     1    39    1
    43     7    40    1
    44     7    41    1
    45     8    42    1
    46    10    43    1
    47    11    44    1
    48    12    45    1
    49    13    46    1
    50    15    47    1
    51    18    48    1
    52    18    49    1
    53    20    50    1
    54    21    51    1
    55    22    52    1
    56    25    53    1
    57    25    54    1
    58    25    55    1
    59    28    56    1
    60    31    57    1
    61    32    58    1
    62    33    59    1
    63    34    60    1
    64    35    61    1
