@<TRIPOS>MOLECULE
*****
 61 64 0 0 0
SMALL
USER_CHARGES

@<TRIPOS>ATOM
      1 C1         -3.1086    1.2143    0.0127 C.3     1  LIG1        0.0000
      2 O2         -1.8303    0.9093   -0.5251 O.3     1  LIG1        0.0000
      3 C3         -1.0275    1.9320   -0.6859 C.2     1  LIG1        0.0000
      4 O4         -1.3926    3.0346   -0.3844 O.2     1  LIG1        0.0000
      5 C5          0.3033    1.7314   -1.2288 C.2     1  LIG1        0.0000
      6 C6          1.2924    1.2924   -0.4618 C.2     1  LIG1        0.0000
      7 C7          1.0000    1.0000    1.0000 C.3     1  LIG1        0.0000
      8 N8          1.8487    1.8487    1.8487 N.pl3   1  LIG1        0.0000
      9 C9          1.3956    3.1098    2.2527 C.3     1  LIG1        0.0000
     10 C10         0.5261    3.8298    1.4399 C.3     1  LIG1        0.0000
     11 C11         0.0833    5.0828    1.8498 C.3     1  LIG1        0.0000
     12 C12         0.5082    5.6071    3.0662 C.3     1  LIG1        0.0000
     13 C13         1.3774    4.8909    3.8823 C.3     1  LIG1        0.0000
     14 C14         1.8178    3.6387    3.4672 C.3     1  LIG1        0.0000
     15 N15         2.6923    2.9074    4.2795 N.am    1  LIG1        0.0000
     16 C16         2.3130    2.5499    5.5465 C.2     1  LIG1        0.0000
     17 O17         3.0627    1.9230    6.2428 O.2     1  LIG1        0.0000
     18 C18         0.9425    2.9473    6.0701 C.3     1  LIG1        0.0000
     19 C19        -0.0036    1.7654    5.9595 C.2     1  LIG1        0.0000
     20 C20        -0.8047    1.4418    4.9073 C.2     1  LIG1        0.0000
     21 C21        -1.5696    0.2657    5.1320 C.2     1  LIG1        0.0000
     22 C22        -1.4029   -0.3579    6.3330 C.2     1  LIG1        0.0000
     23 S23        -0.2522    0.5859    7.1581 S.3     1  LIG1        0.0000
     24 N24         2.5962    1.0909   -0.9403 N.am    1  LIG1        0.0000
     25 C25         3.6586    0.5836   -0.0619 C.3     1  LIG1        0.0000
     26 C26         2.9031    1.3830   -2.2766 C.2     1  LIG1        0.0000
     27 O27         4.0312    1.2302   -2.7158 O.2     1  LIG1        0.0000
     28 N28         1.9146    1.8606   -3.1460 N.am    1  LIG1        0.0000
     29 C29         0.5234    2.0480   -2.7040 C.3     1  LIG1        0.0000
     30 C30        -0.0242    3.4147   -3.0830 C.3     1  LIG1        0.0000
     31 C31        -1.3349    3.5298   -3.5343 C.3     1  LIG1        0.0000
     32 C32        -1.8275    4.7839   -3.8797 C.3     1  LIG1        0.0000
     33 C33        -1.0120    5.9063   -3.7717 C.3     1  LIG1        0.0000
     34 C34         0.2975    5.7818   -3.3192 C.3     1  LIG1        0.0000
     35 C35         0.7983    4.5310   -2.9723 C.3     1  LIG1        0.0000
     36 H          -0.0206    1.3815   -3.2137 H       1  LIG1        0.0000
     37 H          -3.6440    0.3739    0.0969 H       1  LIG1        0.0000
     38 H          -2.9997    1.6320    0.9148 H       1  LIG1        0.0000
     39 H          -3.5824    1.8519   -0.5948 H       1  LIG1        0.0000
     40 H           0.0377    1.1925    1.1925 H       1  LIG1        0.0000
     41 H           1.1925    0.0377    1.1925 H       1  LIG1        0.0000
     42 H           2.7498    1.5250    2.1374 H       1  LIG1        0.0000
     43 H           0.2216    3.4490    0.5669 H       1  LIG1        0.0000
     44 H          -0.5406    5.6069    1.2700 H       1  LIG1        0.0000
     45 H           0.1854    6.5079    3.3568 H       1  LIG1        0.0000
     46 H           1.6816    5.2712    4.7557 H       1  LIG1        0.0000
     47 H           3.5940    2.6460    3.9350 H       1  LIG1        0.0000
     48 H           0.5875    3.7101    5.5296 H       1  LIG1        0.0000
     49 H           1.0191    3.2245    7.0278 H       1  LIG1        0.0000
     50 H          -0.8500    1.9766    4.0635 H       1  LIG1        0.0000
     51 H          -2.2006   -0.0881    4.4417 H       1  LIG1        0.0000
     52 H          -1.8571   -1.1876    6.6576 H       1  LIG1        0.0000
     53 H           3.2870    0.4240    0.8527 H       1  LIG1        0.0000
     54 H           4.0151   -0.2746   -0.4313 H       1  LIG1        0.0000
     55 H           4.3969    1.2560   -0.0090 H       1  LIG1        0.0000
     56 H           2.1600    2.0796   -4.0903 H       1  LIG1        0.0000
     57 H          -1.9166    2.7199   -3.6097 H       1  LIG1        0.0000
     58 H          -2.7681    4.8790   -4.2056 H       1  LIG1        0.0000
     59 H          -1.3690    6.8066   -4.0207 H       1  LIG1        0.0000
     60 H           0.8791    6.5917   -3.2431 H       1  LIG1        0.0000
     61 H           1.7391    4.4356   -2.6471 H       1  LIG1        0.0000
@<TRIPOS>BOND
     1     1     2    1
     2     2     3    1
     3     3     4    2
     4     3     5    1
     5     5     6    2
     6     6     7    1
     7     7     8    1
     8     8     9    1
     9     9    10   ar
    10    10    11   ar
    11    11    12   ar
    12    12    13   ar
    13    13    14   ar
    14    14     9   ar
    15    14    15    1
    16    15    16   am
    17    16    17    2
    18    16    18    1
    19    18    19    1
    20    19    20    2
    21    20    21    1
    22    21    22    2
    23    22    23    1
    24    23    19    1
    25     6    24    1
    26    24    25    1
    27    24    26   am
    28    26    27    2
    29    26    28   am
    30    28    29    1
    31    29     5    1
    32    29    30    1
    33    30    31   ar
    34    31    32   ar
    35    32    33   ar
    36    33    34   ar
    37    34    35   ar
    38    35    30   ar
    39    29    36    1
    40     1    37    1
    41     1    38    1
    42     1    39    1
    43     7    40    1
    44     7    41    1
    45     8    42    1
    46    10    43    1
    47    11    44    1
    48    12    45    1
    49    13    46    1
    50    15    47    1
    51    18    48    1
    52    18    49    1
    53    20    50    1
    54    21    51    1
    55    22    52    1
    56    25    53    1
    57    25    54    1
    58    25    55    1
    59    28    56    1
    60    31    57    1
    61    32    58    1
    62    33    59    1
    63    34    60    1
    64    35    61    1
