@<TRIPOS>MOLECULE
*****
 61 64 0 0 0
SMALL
USER_CHARGES

@<TRIPOS>ATOM
      1 C1         -3.1086    1.2143    0.0127 C.3     1  LIG1        0.0000
      2 O2         -1.8303    0.9093   -0.5251 O.3     1  LIG1        0.0000
      3 C3         -1.0275    1.9320   -0.6859 C.2     1  LIG1        0.0000
      4 O4         -1.3926    3.0346   -0.3844 O.2     1  LIG1        0.0000
      5 C5          0.3033    1.7314   -1.2288 C.2     1  LIG1        0.0000
      6 C6          1.2924    1.2924   -0.4618 C.2     1  LIG1        0.0000
      7 C7          1.0000    1.0000    1.0000 C.3     1  LIG1        0.0000
      8 N8          1.8487    1.8487    1.8487 N.pl3   1  LIG1        0.0000
      9 C9          1.3956    3.1098    2.2527 C.3     1  LIG1        0.0000
     10 C10         0.1424    3.5603    1.8509 C.3     1  LIG1        0.0000
     11 C11        -0.2977    4.8157    2.2564 C.3     1  LIG1        0.0000
     12 C12         0.5128    5.6108    3.0601 C.3     1  LIG1        0.0000
     13 C13         1.7667    5.1646    3.4644 C.3     1  LIG1        0.0000
     14 C14         2.2022    3.9087    3.0554 C.3     1  LIG1        0.0000
     15 N15         3.4617    3.4477    3.4559 N.am    1  LIG1        0.0000
     16 C16         3.7483    3.3084    4.7883 C.2     1  LIG1        0.0000
     17 O17         4.8281    2.9132    5.1316 O.2     1  LIG1        0.0000
     18 C18         2.6987    3.6545    5.8317 C.3     1  LIG1        0.0000
     19 C19         3.2656    3.4136    7.2190 C.2     1  LIG1        0.0000
     20 C20         3.2120    2.2645    7.9472 C.2     1  LIG1        0.0000
     21 C21         3.8441    2.3794    9.2145 C.2     1  LIG1        0.0000
     22 C22         4.3996    3.5867    9.5191 C.2     1  LIG1        0.0000
     23 S23         4.0996    4.5606    8.1564 S.3     1  LIG1        0.0000
     24 N24         2.5962    1.0909   -0.9403 N.am    1  LIG1        0.0000
     25 C25         3.6586    0.5836   -0.0619 C.3     1  LIG1        0.0000
     26 C26         2.9031    1.3830   -2.2766 C.2     1  LIG1        0.0000
     27 O27         4.0312    1.2302   -2.7158 O.2     1  LIG1        0.0000
     28 N28         1.9146    1.8606   -3.1460 N.am    1  LIG1        0.0000
     29 C29         0.5234    2.0480   -2.7040 C.3     1  LIG1        0.0000
     30 C30        -0.0242    3.4147   -3.0830 C.3     1  LIG1        0.0000
     31 C31         0.7091    4.5576   -2.7817 C.3     1  LIG1        0.0000
     32 C32         0.2003    5.8039   -3.1314 C.3     1  LIG1        0.0000
     33 C33        -1.0295    5.8981   -3.7758 C.3     1  LIG1        0.0000
     34 C34        -1.7560    4.7498   -4.0735 C.3     1  LIG1        0.0000
     35 C35        -1.2545    3.4993   -3.7266 C.3     1  LIG1        0.0000
     36 H          -0.0206    1.3815   -3.2137 H       1  LIG1        0.0000
     37 H          -3.6440    0.3739    0.0969 H       1  LIG1        0.0000
     38 H          -2.9997    1.6320    0.9148 H       1  LIG1        0.0000
     39 H          -3.5824    1.8519   -0.5948 H       1  LIG1        0.0000
     40 H           0.0377    1.1925    1.1925 H       1  LIG1        0.0000
     41 H           1.1925    0.0377    1.1925 H       1  LIG1        0.0000
     42 H           2.7498    1.5250    2.1374 H       1  LIG1        0.0000
     43 H          -0.4382    2.9853    1.2745 H       1  LIG1        0.0000
     44 H          -1.1968    5.1469    1.9701 H       1  LIG1        0.0000
     45 H           0.1909    6.5120    3.3500 H       1  LIG1        0.0000
     46 H           2.3472    5.7392    4.0414 H       1  LIG1        0.0000
     47 H           4.1523    3.2200    2.7694 H       1  LIG1        0.0000
     48 H           1.8920    3.0791    5.6967 H       1  LIG1        0.0000
     49 H           2.4412    4.6164    5.7393 H       1  LIG1        0.0000
     50 H           2.7731    1.4262    7.6236 H       1  LIG1        0.0000
     51 H           3.8800    1.6107    9.8531 H       1  LIG1        0.0000
     52 H           4.8781    3.8435   10.3588 H       1  LIG1        0.0000
     53 H           3.2870    0.4240    0.8527 H       1  LIG1        0.0000
     54 H           4.0151   -0.2746   -0.4313 H       1  LIG1        0.0000
     55 H           4.3969    1.2560   -0.0090 H       1  LIG1        0.0000
     56 H           2.1600    2.0796   -4.0903 H       1  LIG1        0.0000
     57 H           1.5924    4.4840   -2.3187 H       1  LIG1        0.0000
     58 H           0.7184    6.6326   -2.9197 H       1  LIG1        0.0000
     59 H          -1.3927    6.7956   -4.0261 H       1  LIG1        0.0000
     60 H          -2.6390    4.8232   -4.5371 H       1  LIG1        0.0000
     61 H          -1.7728    2.6705   -3.9375 H       1  LIG1        0.0000
@<TRIPOS>BOND
     1     1     2    1
     2     2     3    1
     3     3     4    2
     4     3     5    1
     5     5     6    2
     6     6     7    1
     7     7     8    1
     8     8     9    1
     9     9    10   ar
    10    10    11   ar
    11    11    12   ar
    12    12    13   ar
    13    13    14   ar
    14    14     9   ar
    15    14    15    1
    16    15    16   am
    17    16    17    2
    18    16    18    1
    19    18    19    1
    20    19    20    2
    21    20    21    1
    22    21    22    2
    23    22    23    1
    24    23    19    1
    25     6    24    1
    26    24    25    1
    27    24    26   am
    28    26    27    2
    29    26    28   am
    30    28    29    1
    31    29     5    1
    32    29    30    1
    33    30    31   ar
    34    31    32   ar
    35    32    33   ar
    36    33    34   ar
    37    34    35   ar
    38    35    30   ar
    39    29    36    1
    40     1    37    1
    41     1    38    1
    42     1    39    1
    43     7    40    1
    44     7    41    1
    45     8    42    1
    46    10    43    1
    47    11    44    1
    48    12    45    1
    49    13    46    1
    50    15    47    1
    51    18    48    1
    52    18    49    1
    53    20    50    1
    54    21    51    1
    55    22    52    1
    56    25    53    1
    57    25    54    1
    58    25    55    1
    59    28    56    1
    60    31    57    1
    61    32    58    1
    62    33    59    1
    63    34    60    1
    64    35    61    1
