@<TRIPOS>MOLECULE
*****
 61 64 0 0 0
SMALL
USER_CHARGES

@<TRIPOS>ATOM
      1 C1         -2.6302    3.1144    0.4834 C.3     1  LIG1        0.0000
      2 O2         -1.2998    3.0163   -0.0032 O.3     1  LIG1        0.0000
      3 C3         -1.0275    1.9320   -0.6859 C.2     1  LIG1        0.0000
      4 O4         -1.8785    1.1046   -0.8625 O.2     1  LIG1        0.0000
      5 C5          0.3033    1.7314   -1.2288 C.2     1  LIG1        0.0000
      6 C6          1.2924    1.2924   -0.4618 C.2     1  LIG1        0.0000
      7 C7          1.0000    1.0000    1.0000 C.3     1  LIG1        0.0000
      8 N8          1.8487    1.8487    1.8487 N.pl3   1  LIG1        0.0000
      9 C9          1.7579    1.7579    3.2424 C.3     1  LIG1        0.0000
     10 C10         0.8643    0.8647    3.8245 C.3     1  LIG1        0.0000
     11 C11         0.7805    0.7835    5.2104 C.3     1  LIG1        0.0000
     12 C12         1.5886    1.5906    6.0045 C.3     1  LIG1        0.0000
     13 C13         2.4836    2.4851    5.4271 C.3     1  LIG1        0.0000
     14 C14         2.5628    2.5628    4.0407 C.3     1  LIG1        0.0000
     15 N15         3.4598    3.4584    3.4470 N.am    1  LIG1        0.0000
     16 C16         4.8028    3.3479    3.6944 C.2     1  LIG1        0.0000
     17 O17         5.5718    4.1158    3.1854 O.2     1  LIG1        0.0000
     18 C18         5.3187    2.2528    4.6135 C.3     1  LIG1        0.0000
     19 C19         6.8298    2.3502    4.7182 C.2     1  LIG1        0.0000
     20 C20         7.7555    1.7407    3.9275 C.2     1  LIG1        0.0000
     21 C21         9.0923    2.0454    4.3003 C.2     1  LIG1        0.0000
     22 C22         9.2602    2.8794    5.3658 C.2     1  LIG1        0.0000
     23 S23         7.6815    3.2633    5.8717 S.3     1  LIG1        0.0000
     24 N24         2.5962    1.0909   -0.9403 N.am    1  LIG1        0.0000
     25 C25         3.6586    0.5836   -0.0619 C.3     1  LIG1        0.0000
     26 C26         2.9031    1.3830   -2.2766 C.2     1  LIG1        0.0000
     27 O27         4.0312    1.2302   -2.7158 O.2     1  LIG1        0.0000
     28 N28         1.9146    1.8606   -3.1460 N.am    1  LIG1        0.0000
     29 C29         0.5234    2.0480   -2.7040 C.3     1  LIG1        0.0000
     30 C30        -0.0242    3.4147   -3.0830 C.3     1  LIG1        0.0000
     31 C31         0.7091    4.5576   -2.7817 C.3     1  LIG1        0.0000
     32 C32         0.2003    5.8039   -3.1314 C.3     1  LIG1        0.0000
     33 C33        -1.0295    5.8981   -3.7758 C.3     1  LIG1        0.0000
     34 C34        -1.7560    4.7498   -4.0735 C.3     1  LIG1        0.0000
     35 C35        -1.2545    3.4993   -3.7266 C.3     1  LIG1        0.0000
     36 H          -0.0206    1.3815   -3.2137 H       1  LIG1        0.0000
     37 H          -2.7383    3.9710    0.9880 H       1  LIG1        0.0000
     38 H          -3.2686    3.0980   -0.2861 H       1  LIG1        0.0000
     39 H          -2.8207    2.3433    1.0910 H       1  LIG1        0.0000
     40 H           0.0377    1.1925    1.1925 H       1  LIG1        0.0000
     41 H           1.1925    0.0377    1.1925 H       1  LIG1        0.0000
     42 H           2.4909    2.4909    1.4303 H       1  LIG1        0.0000
     43 H           0.2861    0.2850    3.2504 H       1  LIG1        0.0000
     44 H           0.1393    0.1450    5.6359 H       1  LIG1        0.0000
     45 H           1.5254    1.5271    7.0005 H       1  LIG1        0.0000
     46 H           3.0624    3.0644    6.0010 H       1  LIG1        0.0000
     47 H           3.1204    4.1790    2.8423 H       1  LIG1        0.0000
     48 H           5.0673    1.3593    4.2413 H       1  LIG1        0.0000
     49 H           4.9139    2.3615    5.5215 H       1  LIG1        0.0000
     50 H           7.5190    1.1406    3.1633 H       1  LIG1        0.0000
     51 H           9.8734    1.6660    3.8045 H       1  LIG1        0.0000
     52 H          10.1217    3.1958    5.7628 H       1  LIG1        0.0000
     53 H           3.2870    0.4240    0.8527 H       1  LIG1        0.0000
     54 H           4.0151   -0.2746   -0.4313 H       1  LIG1        0.0000
     55 H           4.3969    1.2560   -0.0090 H       1  LIG1        0.0000
     56 H           2.1600    2.0796   -4.0903 H       1  LIG1        0.0000
     57 H           1.5924    4.4840   -2.3187 H       1  LIG1        0.0000
     58 H           0.7184    6.6326   -2.9197 H       1  LIG1        0.0000
     59 H          -1.3927    6.7956   -4.0261 H       1  LIG1        0.0000
     60 H          -2.6390    4.8232   -4.5371 H       1  LIG1        0.0000
     61 H          -1.7728    2.6705   -3.9375 H       1  LIG1        0.0000
@<TRIPOS>BOND
     1     1     2    1
     2     2     3    1
     3     3     4    2
     4     3     5    1
     5     5     6    2
     6     6     7    1
     7     7     8    1
     8     8     9    1
     9     9    10   ar
    10    10    11   ar
    11    11    12   ar
    12    12    13   ar
    13    13    14   ar
    14    14     9   ar
    15    14    15    1
    16    15    16   am
    17    16    17    2
    18    16    18    1
    19    18    19    1
    20    19    20    2
    21    20    21    1
    22    21    22    2
    23    22    23    1
    24    23    19    1
    25     6    24    1
    26    24    25    1
    27    24    26   am
    28    26    27    2
    29    26    28   am
    30    28    29    1
    31    29     5    1
    32    29    30    1
    33    30    31   ar
    34    31    32   ar
    35    32    33   ar
    36    33    34   ar
    37    34    35   ar
    38    35    30   ar
    39    29    36    1
    40     1    37    1
    41     1    38    1
    42     1    39    1
    43     7    40    1
    44     7    41    1
    45     8    42    1
    46    10    43    1
    47    11    44    1
    48    12    45    1
    49    13    46    1
    50    15    47    1
    51    18    48    1
    52    18    49    1
    53    20    50    1
    54    21    51    1
    55    22    52    1
    56    25    53    1
    57    25    54    1
    58    25    55    1
    59    28    56    1
    60    31    57    1
    61    32    58    1
    62    33    59    1
    63    34    60    1
    64    35    61    1
