@<TRIPOS>MOLECULE

  52   55
SMALL
USER_CHARGES
@<TRIPOS>ATOM
   1 C1           8.2836    -2.2812     3.9196 C.3          1    LIG   0.0000
   2 C2           8.2053    -0.9291     3.2295 C.3          1    LIG   0.0000
   3 C3           6.9245    -0.8497     2.4141 C.ar         1    LIG   0.0000
   4 C4           5.7620    -0.3541     2.9965 C.ar         1    LIG   0.0000
   5 C5           4.5985    -0.2822     2.2358 C.ar         1    LIG   0.0000
   6 C6           4.5623    -0.6857     0.9037 C.ar         1    LIG   0.0000
   7 C7           5.7404    -1.1710     0.3607 C.ar         1    LIG   0.0000
   8 C8           6.9168    -1.2665     1.0871 C.ar         1    LIG   0.0000
   9 C9           5.4415    -1.5013    -1.0914 C.3          1    LIG   0.0000
  10 C10          3.9432    -1.6625    -1.0920 C.3          1    LIG   0.0000
  11 N11          3.5452    -0.7149    -0.0499 N.pl3        1    LIG   0.0000
  12 C12          2.3620     0.0316    -0.0237 C.ar         1    LIG   0.0000
  13 N13          1.2098    -0.6573    -0.0174 N.ar         1    LIG   0.0000
  14 C14          0.0214    -0.0336     0.0064 C.ar         1    LIG   0.0000
  15 C15         -1.2982    -0.7849     0.0160 C.3          1    LIG   0.0000
  16 N16         -1.7036    -1.0455     1.4048 N.4          1    LIG   1.0000
  17 C17         -0.6740    -1.8551     2.0720 C.3          1    LIG   0.0000
  18 C18         -1.8612     0.2307     2.1170 C.3          1    LIG   0.0000
  19 N19         -0.0586     1.2987     0.0251 N.ar         1    LIG   0.0000
  20 C20          1.1012     1.9476     0.0180 C.ar         1    LIG   0.0000
  21 S21          1.2013     3.6442     0.0381 S.3          1    LIG   0.0000
  22 C22          2.9006     3.7220     0.0130 C.2          1    LIG   0.0000
  23 C23          3.6724     4.9473     0.0140 C.2          1    LIG   0.0000
  24 O24          3.0897     6.0530     0.0345 O.co2        1    LIG   0.0000
  25 O25          4.8814     4.9009    -0.0049 O.co2        1    LIG  -1.0000
  26 C26          3.3760     2.4424    -0.0109 C.2          1    LIG   0.0000
  27 C27          4.8727     2.1826    -0.0387 C.3          1    LIG   0.0000
  28 C28          2.3723     1.4212    -0.0071 C.ar         1    LIG   0.0000
  29 H           -2.5726    -1.5403     1.4111 H            1    LIG   0.0000
  30 H            9.1260    -2.3334     4.4559 H            1    LIG   0.0000
  31 H            7.4956    -2.3926     4.5250 H            1    LIG   0.0000
  32 H            8.2808    -3.0071     3.2318 H            1    LIG   0.0000
  33 H            8.2081    -0.2032     3.9173 H            1    LIG   0.0000
  34 H            8.9933    -0.8177     2.6241 H            1    LIG   0.0000
  35 H            5.7623    -0.0532     3.9501 H            1    LIG   0.0000
  36 H            3.7636     0.0699     2.6587 H            1    LIG   0.0000
  37 H            7.7470    -1.6292     0.6639 H            1    LIG   0.0000
  38 H            5.8955    -2.3478    -1.3696 H            1    LIG   0.0000
  39 H            5.7244    -0.7569    -1.6963 H            1    LIG   0.0000
  40 H            3.5500    -1.4169    -1.9780 H            1    LIG   0.0000
  41 H            3.6765    -2.5971    -0.8565 H            1    LIG   0.0000
  42 H           -1.9987    -0.2341    -0.4379 H            1    LIG   0.0000
  43 H           -1.1910    -1.6531    -0.4685 H            1    LIG   0.0000
  44 H           -0.9497    -2.0325     3.0168 H            1    LIG   0.0000
  45 H           -0.5668    -2.7233     1.5875 H            1    LIG   0.0000
  46 H            0.1950    -1.3604     2.0657 H            1    LIG   0.0000
  47 H           -2.1370     0.0534     3.0617 H            1    LIG   0.0000
  48 H           -0.9922     0.7255     2.1107 H            1    LIG   0.0000
  49 H           -2.5617     0.7815     1.6630 H            1    LIG   0.0000
  50 H            5.3625     3.0545    -0.0359 H            1    LIG   0.0000
  51 H            5.1338     1.6511     0.7671 H            1    LIG   0.0000
  52 H            5.1070     1.6713    -0.8656 H            1    LIG   0.0000
@<TRIPOS>BOND
   1        1        2 1
   2        2        3 1
   3        3        4 ar
   4        4        5 ar
   5        5        6 ar
   6        6        7 ar
   7        7        8 ar
   8        8        3 ar
   9        7        9 1
  10        9       10 1
  11       10       11 1
  12       11        6 1
  13       11       12 1
  14       12       13 ar
  15       13       14 ar
  16       14       15 1
  17       15       16 1
  18       16       17 1
  19       16       18 1
  20       14       19 ar
  21       19       20 ar
  22       20       21 1
  23       21       22 1
  24       22       23 1
  25       23       24 ar
  26       23       25 ar
  27       22       26 2
  28       26       27 1
  29       26       28 1
  30       28       12 ar
  31       28       20 ar
  32       16       29 1
  33        1       30 1
  34        1       31 1
  35        1       32 1
  36        2       33 1
  37        2       34 1
  38        4       35 1
  39        5       36 1
  40        8       37 1
  41        9       38 1
  42        9       39 1
  43       10       40 1
  44       10       41 1
  45       15       42 1
  46       15       43 1
  47       17       44 1
  48       17       45 1
  49       17       46 1
  50       18       47 1
  51       18       48 1
  52       18       49 1
  53       27       50 1
  54       27       51 1
  55       27       52 1

@<TRIPOS>MOLECULE

  52   55
SMALL
USER_CHARGES
@<TRIPOS>ATOM
   1 C1           8.2836    -2.2812     3.9196 C.3          1    LIG   0.0000
   2 C2           8.2053    -0.9291     3.2295 C.3          1    LIG   0.0000
   3 C3           6.9245    -0.8497     2.4141 C.ar         1    LIG   0.0000
   4 C4           5.7620    -0.3541     2.9965 C.ar         1    LIG   0.0000
   5 C5           4.5985    -0.2822     2.2358 C.ar         1    LIG   0.0000
   6 C6           4.5623    -0.6857     0.9037 C.ar         1    LIG   0.0000
   7 C7           5.7404    -1.1710     0.3607 C.ar         1    LIG   0.0000
   8 C8           6.9168    -1.2665     1.0871 C.ar         1    LIG   0.0000
   9 C9           5.4415    -1.5013    -1.0914 C.3          1    LIG   0.0000
  10 C10          3.9432    -1.6625    -1.0920 C.3          1    LIG   0.0000
  11 N11          3.5452    -0.7149    -0.0499 N.pl3        1    LIG   0.0000
  12 C12          2.3620     0.0316    -0.0237 C.ar         1    LIG   0.0000
  13 N13          1.2098    -0.6573    -0.0174 N.ar         1    LIG   0.0000
  14 C14          0.0214    -0.0336     0.0064 C.ar         1    LIG   0.0000
  15 C15         -1.2982    -0.7849     0.0160 C.3          1    LIG   0.0000
  16 N16         -1.7445    -1.0091    -1.3666 N.4          1    LIG   1.0000
  17 C17         -1.9225     0.2854    -2.0400 C.3          1    LIG   0.0000
  18 C18         -0.7353    -1.8005    -2.0849 C.3          1    LIG   0.0000
  19 N19         -0.0586     1.2987     0.0251 N.ar         1    LIG   0.0000
  20 C20          1.1012     1.9476     0.0180 C.ar         1    LIG   0.0000
  21 S21          1.2013     3.6442     0.0381 S.3          1    LIG   0.0000
  22 C22          2.9006     3.7220     0.0130 C.2          1    LIG   0.0000
  23 C23          3.6724     4.9473     0.0140 C.2          1    LIG   0.0000
  24 O24          3.0897     6.0530     0.0345 O.co2        1    LIG   0.0000
  25 O25          4.8814     4.9009    -0.0049 O.co2        1    LIG  -1.0000
  26 C26          3.3760     2.4424    -0.0109 C.2          1    LIG   0.0000
  27 C27          4.8727     2.1826    -0.0387 C.3          1    LIG   0.0000
  28 C28          2.3723     1.4212    -0.0071 C.ar         1    LIG   0.0000
  29 H           -2.6135    -1.5039    -1.3603 H            1    LIG   0.0000
  30 H            9.1260    -2.3334     4.4559 H            1    LIG   0.0000
  31 H            7.4956    -2.3926     4.5250 H            1    LIG   0.0000
  32 H            8.2808    -3.0071     3.2318 H            1    LIG   0.0000
  33 H            8.2081    -0.2032     3.9173 H            1    LIG   0.0000
  34 H            8.9933    -0.8177     2.6241 H            1    LIG   0.0000
  35 H            5.7623    -0.0532     3.9501 H            1    LIG   0.0000
  36 H            3.7636     0.0699     2.6587 H            1    LIG   0.0000
  37 H            7.7470    -1.6292     0.6639 H            1    LIG   0.0000
  38 H            5.8955    -2.3478    -1.3696 H            1    LIG   0.0000
  39 H            5.7244    -0.7569    -1.6963 H            1    LIG   0.0000
  40 H            3.5500    -1.4169    -1.9780 H            1    LIG   0.0000
  41 H            3.6765    -2.5971    -0.8565 H            1    LIG   0.0000
  42 H           -1.1771    -1.6655     0.4741 H            1    LIG   0.0000
  43 H           -1.9848    -0.2465     0.5047 H            1    LIG   0.0000
  44 H           -2.2261     0.1328    -2.9805 H            1    LIG   0.0000
  45 H           -2.6090     0.8237    -1.5513 H            1    LIG   0.0000
  46 H           -1.0535     0.7801    -2.0463 H            1    LIG   0.0000
  47 H           -1.0388    -1.9530    -3.0255 H            1    LIG   0.0000
  48 H            0.1338    -1.3057    -2.0912 H            1    LIG   0.0000
  49 H           -0.6141    -2.6811    -1.6268 H            1    LIG   0.0000
  50 H            5.3625     3.0545    -0.0359 H            1    LIG   0.0000
  51 H            5.1338     1.6511     0.7671 H            1    LIG   0.0000
  52 H            5.1070     1.6713    -0.8656 H            1    LIG   0.0000
@<TRIPOS>BOND
   1        1        2 1
   2        2        3 1
   3        3        4 ar
   4        4        5 ar
   5        5        6 ar
   6        6        7 ar
   7        7        8 ar
   8        8        3 ar
   9        7        9 1
  10        9       10 1
  11       10       11 1
  12       11        6 1
  13       11       12 1
  14       12       13 ar
  15       13       14 ar
  16       14       15 1
  17       15       16 1
  18       16       17 1
  19       16       18 1
  20       14       19 ar
  21       19       20 ar
  22       20       21 1
  23       21       22 1
  24       22       23 1
  25       23       24 ar
  26       23       25 ar
  27       22       26 2
  28       26       27 1
  29       26       28 1
  30       28       12 ar
  31       28       20 ar
  32       16       29 1
  33        1       30 1
  34        1       31 1
  35        1       32 1
  36        2       33 1
  37        2       34 1
  38        4       35 1
  39        5       36 1
  40        8       37 1
  41        9       38 1
  42        9       39 1
  43       10       40 1
  44       10       41 1
  45       15       42 1
  46       15       43 1
  47       17       44 1
  48       17       45 1
  49       17       46 1
  50       18       47 1
  51       18       48 1
  52       18       49 1
  53       27       50 1
  54       27       51 1
  55       27       52 1

@<TRIPOS>MOLECULE

  52   55
SMALL
USER_CHARGES
@<TRIPOS>ATOM
   1 C1           8.9806     0.3701     3.0829 C.3          1    LIG   0.0000
   2 C2           8.2053    -0.9291     3.2295 C.3          1    LIG   0.0000
   3 C3           6.9245    -0.8497     2.4141 C.ar         1    LIG   0.0000
   4 C4           5.7620    -0.3541     2.9965 C.ar         1    LIG   0.0000
   5 C5           4.5985    -0.2822     2.2358 C.ar         1    LIG   0.0000
   6 C6           4.5623    -0.6857     0.9037 C.ar         1    LIG   0.0000
   7 C7           5.7404    -1.1710     0.3607 C.ar         1    LIG   0.0000
   8 C8           6.9168    -1.2665     1.0871 C.ar         1    LIG   0.0000
   9 C9           5.4415    -1.5013    -1.0914 C.3          1    LIG   0.0000
  10 C10          3.9432    -1.6625    -1.0920 C.3          1    LIG   0.0000
  11 N11          3.5452    -0.7149    -0.0499 N.pl3        1    LIG   0.0000
  12 C12          2.3620     0.0316    -0.0237 C.ar         1    LIG   0.0000
  13 N13          1.2098    -0.6573    -0.0174 N.ar         1    LIG   0.0000
  14 C14          0.0214    -0.0336     0.0064 C.ar         1    LIG   0.0000
  15 C15         -1.2982    -0.7849     0.0160 C.3          1    LIG   0.0000
  16 N16         -1.7036    -1.0455     1.4048 N.4          1    LIG   1.0000
  17 C17         -0.6740    -1.8551     2.0720 C.3          1    LIG   0.0000
  18 C18         -1.8612     0.2307     2.1170 C.3          1    LIG   0.0000
  19 N19         -0.0586     1.2987     0.0251 N.ar         1    LIG   0.0000
  20 C20          1.1012     1.9476     0.0180 C.ar         1    LIG   0.0000
  21 S21          1.2013     3.6442     0.0381 S.3          1    LIG   0.0000
  22 C22          2.9006     3.7220     0.0130 C.2          1    LIG   0.0000
  23 C23          3.6724     4.9473     0.0140 C.2          1    LIG   0.0000
  24 O24          3.0897     6.0530     0.0345 O.co2        1    LIG   0.0000
  25 O25          4.8814     4.9009    -0.0049 O.co2        1    LIG  -1.0000
  26 C26          3.3760     2.4424    -0.0109 C.2          1    LIG   0.0000
  27 C27          4.8727     2.1826    -0.0387 C.3          1    LIG   0.0000
  28 C28          2.3723     1.4212    -0.0071 C.ar         1    LIG   0.0000
  29 H           -2.5726    -1.5403     1.4111 H            1    LIG   0.0000
  30 H            9.8230     0.3179     3.6193 H            1    LIG   0.0000
  31 H            9.2070     0.5163     2.1200 H            1    LIG   0.0000
  32 H            8.4218     1.1308     3.4132 H            1    LIG   0.0000
  33 H            8.7641    -1.6898     2.8993 H            1    LIG   0.0000
  34 H            7.9788    -1.0753     4.1925 H            1    LIG   0.0000
  35 H            5.7623    -0.0532     3.9501 H            1    LIG   0.0000
  36 H            3.7636     0.0699     2.6587 H            1    LIG   0.0000
  37 H            7.7470    -1.6292     0.6639 H            1    LIG   0.0000
  38 H            5.8955    -2.3478    -1.3696 H            1    LIG   0.0000
  39 H            5.7244    -0.7569    -1.6963 H            1    LIG   0.0000
  40 H            3.5500    -1.4169    -1.9780 H            1    LIG   0.0000
  41 H            3.6765    -2.5971    -0.8565 H            1    LIG   0.0000
  42 H           -1.9987    -0.2341    -0.4379 H            1    LIG   0.0000
  43 H           -1.1910    -1.6531    -0.4685 H            1    LIG   0.0000
  44 H           -0.9497    -2.0325     3.0168 H            1    LIG   0.0000
  45 H           -0.5668    -2.7233     1.5875 H            1    LIG   0.0000
  46 H            0.1950    -1.3604     2.0657 H            1    LIG   0.0000
  47 H           -2.1370     0.0534     3.0617 H            1    LIG   0.0000
  48 H           -0.9922     0.7255     2.1107 H            1    LIG   0.0000
  49 H           -2.5617     0.7815     1.6630 H            1    LIG   0.0000
  50 H            5.3625     3.0545    -0.0359 H            1    LIG   0.0000
  51 H            5.1338     1.6511     0.7671 H            1    LIG   0.0000
  52 H            5.1070     1.6713    -0.8656 H            1    LIG   0.0000
@<TRIPOS>BOND
   1        1        2 1
   2        2        3 1
   3        3        4 ar
   4        4        5 ar
   5        5        6 ar
   6        6        7 ar
   7        7        8 ar
   8        8        3 ar
   9        7        9 1
  10        9       10 1
  11       10       11 1
  12       11        6 1
  13       11       12 1
  14       12       13 ar
  15       13       14 ar
  16       14       15 1
  17       15       16 1
  18       16       17 1
  19       16       18 1
  20       14       19 ar
  21       19       20 ar
  22       20       21 1
  23       21       22 1
  24       22       23 1
  25       23       24 ar
  26       23       25 ar
  27       22       26 2
  28       26       27 1
  29       26       28 1
  30       28       12 ar
  31       28       20 ar
  32       16       29 1
  33        1       30 1
  34        1       31 1
  35        1       32 1
  36        2       33 1
  37        2       34 1
  38        4       35 1
  39        5       36 1
  40        8       37 1
  41        9       38 1
  42        9       39 1
  43       10       40 1
  44       10       41 1
  45       15       42 1
  46       15       43 1
  47       17       44 1
  48       17       45 1
  49       17       46 1
  50       18       47 1
  51       18       48 1
  52       18       49 1
  53       27       50 1
  54       27       51 1
  55       27       52 1

@<TRIPOS>MOLECULE

  52   55
SMALL
USER_CHARGES
@<TRIPOS>ATOM
   1 C1           8.9806     0.3701     3.0829 C.3          1    LIG   0.0000
   2 C2           8.2053    -0.9291     3.2295 C.3          1    LIG   0.0000
   3 C3           6.9245    -0.8497     2.4141 C.ar         1    LIG   0.0000
   4 C4           5.7620    -0.3541     2.9965 C.ar         1    LIG   0.0000
   5 C5           4.5985    -0.2822     2.2358 C.ar         1    LIG   0.0000
   6 C6           4.5623    -0.6857     0.9037 C.ar         1    LIG   0.0000
   7 C7           5.7404    -1.1710     0.3607 C.ar         1    LIG   0.0000
   8 C8           6.9168    -1.2665     1.0871 C.ar         1    LIG   0.0000
   9 C9           5.4415    -1.5013    -1.0914 C.3          1    LIG   0.0000
  10 C10          3.9432    -1.6625    -1.0920 C.3          1    LIG   0.0000
  11 N11          3.5452    -0.7149    -0.0499 N.pl3        1    LIG   0.0000
  12 C12          2.3620     0.0316    -0.0237 C.ar         1    LIG   0.0000
  13 N13          1.2098    -0.6573    -0.0174 N.ar         1    LIG   0.0000
  14 C14          0.0214    -0.0336     0.0064 C.ar         1    LIG   0.0000
  15 C15         -1.2982    -0.7849     0.0160 C.3          1    LIG   0.0000
  16 N16         -1.7445    -1.0091    -1.3666 N.4          1    LIG   1.0000
  17 C17         -1.9225     0.2854    -2.0400 C.3          1    LIG   0.0000
  18 C18         -0.7353    -1.8005    -2.0849 C.3          1    LIG   0.0000
  19 N19         -0.0586     1.2987     0.0251 N.ar         1    LIG   0.0000
  20 C20          1.1012     1.9476     0.0180 C.ar         1    LIG   0.0000
  21 S21          1.2013     3.6442     0.0381 S.3          1    LIG   0.0000
  22 C22          2.9006     3.7220     0.0130 C.2          1    LIG   0.0000
  23 C23          3.6724     4.9473     0.0140 C.2          1    LIG   0.0000
  24 O24          3.0897     6.0530     0.0345 O.co2        1    LIG   0.0000
  25 O25          4.8814     4.9009    -0.0049 O.co2        1    LIG  -1.0000
  26 C26          3.3760     2.4424    -0.0109 C.2          1    LIG   0.0000
  27 C27          4.8727     2.1826    -0.0387 C.3          1    LIG   0.0000
  28 C28          2.3723     1.4212    -0.0071 C.ar         1    LIG   0.0000
  29 H           -2.6135    -1.5039    -1.3603 H            1    LIG   0.0000
  30 H            9.8230     0.3179     3.6193 H            1    LIG   0.0000
  31 H            9.2070     0.5163     2.1200 H            1    LIG   0.0000
  32 H            8.4218     1.1308     3.4132 H            1    LIG   0.0000
  33 H            8.7641    -1.6898     2.8993 H            1    LIG   0.0000
  34 H            7.9788    -1.0753     4.1925 H            1    LIG   0.0000
  35 H            5.7623    -0.0532     3.9501 H            1    LIG   0.0000
  36 H            3.7636     0.0699     2.6587 H            1    LIG   0.0000
  37 H            7.7470    -1.6292     0.6639 H            1    LIG   0.0000
  38 H            5.8955    -2.3478    -1.3696 H            1    LIG   0.0000
  39 H            5.7244    -0.7569    -1.6963 H            1    LIG   0.0000
  40 H            3.5500    -1.4169    -1.9780 H            1    LIG   0.0000
  41 H            3.6765    -2.5971    -0.8565 H            1    LIG   0.0000
  42 H           -1.1771    -1.6655     0.4741 H            1    LIG   0.0000
  43 H           -1.9848    -0.2465     0.5047 H            1    LIG   0.0000
  44 H           -2.2261     0.1328    -2.9805 H            1    LIG   0.0000
  45 H           -2.6090     0.8237    -1.5513 H            1    LIG   0.0000
  46 H           -1.0535     0.7801    -2.0463 H            1    LIG   0.0000
  47 H           -1.0388    -1.9530    -3.0255 H            1    LIG   0.0000
  48 H            0.1338    -1.3057    -2.0912 H            1    LIG   0.0000
  49 H           -0.6141    -2.6811    -1.6268 H            1    LIG   0.0000
  50 H            5.3625     3.0545    -0.0359 H            1    LIG   0.0000
  51 H            5.1338     1.6511     0.7671 H            1    LIG   0.0000
  52 H            5.1070     1.6713    -0.8656 H            1    LIG   0.0000
@<TRIPOS>BOND
   1        1        2 1
   2        2        3 1
   3        3        4 ar
   4        4        5 ar
   5        5        6 ar
   6        6        7 ar
   7        7        8 ar
   8        8        3 ar
   9        7        9 1
  10        9       10 1
  11       10       11 1
  12       11        6 1
  13       11       12 1
  14       12       13 ar
  15       13       14 ar
  16       14       15 1
  17       15       16 1
  18       16       17 1
  19       16       18 1
  20       14       19 ar
  21       19       20 ar
  22       20       21 1
  23       21       22 1
  24       22       23 1
  25       23       24 ar
  26       23       25 ar
  27       22       26 2
  28       26       27 1
  29       26       28 1
  30       28       12 ar
  31       28       20 ar
  32       16       29 1
  33        1       30 1
  34        1       31 1
  35        1       32 1
  36        2       33 1
  37        2       34 1
  38        4       35 1
  39        5       36 1
  40        8       37 1
  41        9       38 1
  42        9       39 1
  43       10       40 1
  44       10       41 1
  45       15       42 1
  46       15       43 1
  47       17       44 1
  48       17       45 1
  49       17       46 1
  50       18       47 1
  51       18       48 1
  52       18       49 1
  53       27       50 1
  54       27       51 1
  55       27       52 1

@<TRIPOS>MOLECULE

  52   55
SMALL
USER_CHARGES
@<TRIPOS>ATOM
   1 C1           6.8703    -4.2360    -4.1983 C.3          1    LIG   0.0000
   2 C2           5.6386    -4.7615    -3.4791 C.3          1    LIG   0.0000
   3 C3           5.0420    -3.6564    -2.6221 C.ar         1    LIG   0.0000
   4 C4           4.0764    -2.8094    -3.1573 C.ar         1    LIG   0.0000
   5 C5           3.5353    -1.8059    -2.3588 C.ar         1    LIG   0.0000
   6 C6           3.9260    -1.6260    -1.0346 C.ar         1    LIG   0.0000
   7 C7           4.8878    -2.4907    -0.5390 C.ar         1    LIG   0.0000
   8 C8           5.4568    -3.4965    -1.3041 C.ar         1    LIG   0.0000
   9 C9           5.1033    -2.1078     0.9150 C.3          1    LIG   0.0000
  10 C10          4.6044    -0.6865     0.9598 C.3          1    LIG   0.0000
  11 N11          3.5452    -0.7149    -0.0499 N.pl3        1    LIG   0.0000
  12 C12          2.3620     0.0316    -0.0237 C.ar         1    LIG   0.0000
  13 N13          1.2098    -0.6573    -0.0174 N.ar         1    LIG   0.0000
  14 C14          0.0214    -0.0336     0.0064 C.ar         1    LIG   0.0000
  15 C15         -1.2982    -0.7849     0.0160 C.3          1    LIG   0.0000
  16 N16         -1.7036    -1.0455     1.4048 N.4          1    LIG   1.0000
  17 C17         -0.6740    -1.8551     2.0720 C.3          1    LIG   0.0000
  18 C18         -1.8612     0.2307     2.1170 C.3          1    LIG   0.0000
  19 N19         -0.0586     1.2987     0.0251 N.ar         1    LIG   0.0000
  20 C20          1.1012     1.9476     0.0180 C.ar         1    LIG   0.0000
  21 S21          1.2013     3.6442     0.0381 S.3          1    LIG   0.0000
  22 C22          2.9006     3.7220     0.0130 C.2          1    LIG   0.0000
  23 C23          3.6724     4.9473     0.0140 C.2          1    LIG   0.0000
  24 O24          3.0897     6.0530     0.0345 O.co2        1    LIG   0.0000
  25 O25          4.8814     4.9009    -0.0049 O.co2        1    LIG  -1.0000
  26 C26          3.3760     2.4424    -0.0109 C.2          1    LIG   0.0000
  27 C27          4.8727     2.1826    -0.0387 C.3          1    LIG   0.0000
  28 C28          2.3723     1.4212    -0.0071 C.ar         1    LIG   0.0000
  29 H           -2.5726    -1.5403     1.4111 H            1    LIG   0.0000
  30 H            7.2627    -4.9628    -4.7619 H            1    LIG   0.0000
  31 H            6.6127    -3.4648    -4.7805 H            1    LIG   0.0000
  32 H            7.5459    -3.9345    -3.5254 H            1    LIG   0.0000
  33 H            4.9630    -5.0630    -4.1520 H            1    LIG   0.0000
  34 H            5.8962    -5.5326    -2.8969 H            1    LIG   0.0000
  35 H            3.7748    -2.9203    -4.1042 H            1    LIG   0.0000
  36 H            2.8451    -1.1957    -2.7479 H            1    LIG   0.0000
  37 H            6.1546    -4.0978    -0.9147 H            1    LIG   0.0000
  38 H            6.0711    -2.1584     1.1617 H            1    LIG   0.0000
  39 H            4.5726    -2.6959     1.5253 H            1    LIG   0.0000
  40 H            4.2419    -0.4553     1.8626 H            1    LIG   0.0000
  41 H            5.3255    -0.0387     0.7142 H            1    LIG   0.0000
  42 H           -1.9987    -0.2341    -0.4379 H            1    LIG   0.0000
  43 H           -1.1910    -1.6531    -0.4685 H            1    LIG   0.0000
  44 H           -0.9497    -2.0325     3.0168 H            1    LIG   0.0000
  45 H           -0.5668    -2.7233     1.5875 H            1    LIG   0.0000
  46 H            0.1950    -1.3604     2.0657 H            1    LIG   0.0000
  47 H           -2.1370     0.0534     3.0617 H            1    LIG   0.0000
  48 H           -0.9922     0.7255     2.1107 H            1    LIG   0.0000
  49 H           -2.5617     0.7815     1.6630 H            1    LIG   0.0000
  50 H            5.3625     3.0545    -0.0359 H            1    LIG   0.0000
  51 H            5.1338     1.6511     0.7671 H            1    LIG   0.0000
  52 H            5.1070     1.6713    -0.8656 H            1    LIG   0.0000
@<TRIPOS>BOND
   1        1        2 1
   2        2        3 1
   3        3        4 ar
   4        4        5 ar
   5        5        6 ar
   6        6        7 ar
   7        7        8 ar
   8        8        3 ar
   9        7        9 1
  10        9       10 1
  11       10       11 1
  12       11        6 1
  13       11       12 1
  14       12       13 ar
  15       13       14 ar
  16       14       15 1
  17       15       16 1
  18       16       17 1
  19       16       18 1
  20       14       19 ar
  21       19       20 ar
  22       20       21 1
  23       21       22 1
  24       22       23 1
  25       23       24 ar
  26       23       25 ar
  27       22       26 2
  28       26       27 1
  29       26       28 1
  30       28       12 ar
  31       28       20 ar
  32       16       29 1
  33        1       30 1
  34        1       31 1
  35        1       32 1
  36        2       33 1
  37        2       34 1
  38        4       35 1
  39        5       36 1
  40        8       37 1
  41        9       38 1
  42        9       39 1
  43       10       40 1
  44       10       41 1
  45       15       42 1
  46       15       43 1
  47       17       44 1
  48       17       45 1
  49       17       46 1
  50       18       47 1
  51       18       48 1
  52       18       49 1
  53       27       50 1
  54       27       51 1
  55       27       52 1

@<TRIPOS>MOLECULE

  52   55
SMALL
USER_CHARGES
@<TRIPOS>ATOM
   1 C1           6.8703    -4.2360    -4.1983 C.3          1    LIG   0.0000
   2 C2           5.6386    -4.7615    -3.4791 C.3          1    LIG   0.0000
   3 C3           5.0420    -3.6564    -2.6221 C.ar         1    LIG   0.0000
   4 C4           4.0764    -2.8094    -3.1573 C.ar         1    LIG   0.0000
   5 C5           3.5353    -1.8059    -2.3588 C.ar         1    LIG   0.0000
   6 C6           3.9260    -1.6260    -1.0346 C.ar         1    LIG   0.0000
   7 C7           4.8878    -2.4907    -0.5390 C.ar         1    LIG   0.0000
   8 C8           5.4568    -3.4965    -1.3041 C.ar         1    LIG   0.0000
   9 C9           5.1033    -2.1078     0.9150 C.3          1    LIG   0.0000
  10 C10          4.6044    -0.6865     0.9598 C.3          1    LIG   0.0000
  11 N11          3.5452    -0.7149    -0.0499 N.pl3        1    LIG   0.0000
  12 C12          2.3620     0.0316    -0.0237 C.ar         1    LIG   0.0000
  13 N13          1.2098    -0.6573    -0.0174 N.ar         1    LIG   0.0000
  14 C14          0.0214    -0.0336     0.0064 C.ar         1    LIG   0.0000
  15 C15         -1.2982    -0.7849     0.0160 C.3          1    LIG   0.0000
  16 N16         -1.7445    -1.0091    -1.3666 N.4          1    LIG   1.0000
  17 C17         -1.9225     0.2854    -2.0400 C.3          1    LIG   0.0000
  18 C18         -0.7353    -1.8005    -2.0849 C.3          1    LIG   0.0000
  19 N19         -0.0586     1.2987     0.0251 N.ar         1    LIG   0.0000
  20 C20          1.1012     1.9476     0.0180 C.ar         1    LIG   0.0000
  21 S21          1.2013     3.6442     0.0381 S.3          1    LIG   0.0000
  22 C22          2.9006     3.7220     0.0130 C.2          1    LIG   0.0000
  23 C23          3.6724     4.9473     0.0140 C.2          1    LIG   0.0000
  24 O24          3.0897     6.0530     0.0345 O.co2        1    LIG   0.0000
  25 O25          4.8814     4.9009    -0.0049 O.co2        1    LIG  -1.0000
  26 C26          3.3760     2.4424    -0.0109 C.2          1    LIG   0.0000
  27 C27          4.8727     2.1826    -0.0387 C.3          1    LIG   0.0000
  28 C28          2.3723     1.4212    -0.0071 C.ar         1    LIG   0.0000
  29 H           -2.6135    -1.5039    -1.3603 H            1    LIG   0.0000
  30 H            7.2627    -4.9628    -4.7619 H            1    LIG   0.0000
  31 H            6.6127    -3.4648    -4.7805 H            1    LIG   0.0000
  32 H            7.5459    -3.9345    -3.5254 H            1    LIG   0.0000
  33 H            4.9630    -5.0630    -4.1520 H            1    LIG   0.0000
  34 H            5.8962    -5.5326    -2.8969 H            1    LIG   0.0000
  35 H            3.7748    -2.9203    -4.1042 H            1    LIG   0.0000
  36 H            2.8451    -1.1957    -2.7479 H            1    LIG   0.0000
  37 H            6.1546    -4.0978    -0.9147 H            1    LIG   0.0000
  38 H            6.0711    -2.1584     1.1617 H            1    LIG   0.0000
  39 H            4.5726    -2.6959     1.5253 H            1    LIG   0.0000
  40 H            4.2419    -0.4553     1.8626 H            1    LIG   0.0000
  41 H            5.3255    -0.0387     0.7142 H            1    LIG   0.0000
  42 H           -1.1771    -1.6655     0.4741 H            1    LIG   0.0000
  43 H           -1.9848    -0.2465     0.5047 H            1    LIG   0.0000
  44 H           -2.2261     0.1328    -2.9805 H            1    LIG   0.0000
  45 H           -2.6090     0.8237    -1.5513 H            1    LIG   0.0000
  46 H           -1.0535     0.7801    -2.0463 H            1    LIG   0.0000
  47 H           -1.0388    -1.9530    -3.0255 H            1    LIG   0.0000
  48 H            0.1338    -1.3057    -2.0912 H            1    LIG   0.0000
  49 H           -0.6141    -2.6811    -1.6268 H            1    LIG   0.0000
  50 H            5.3625     3.0545    -0.0359 H            1    LIG   0.0000
  51 H            5.1338     1.6511     0.7671 H            1    LIG   0.0000
  52 H            5.1070     1.6713    -0.8656 H            1    LIG   0.0000
@<TRIPOS>BOND
   1        1        2 1
   2        2        3 1
   3        3        4 ar
   4        4        5 ar
   5        5        6 ar
   6        6        7 ar
   7        7        8 ar
   8        8        3 ar
   9        7        9 1
  10        9       10 1
  11       10       11 1
  12       11        6 1
  13       11       12 1
  14       12       13 ar
  15       13       14 ar
  16       14       15 1
  17       15       16 1
  18       16       17 1
  19       16       18 1
  20       14       19 ar
  21       19       20 ar
  22       20       21 1
  23       21       22 1
  24       22       23 1
  25       23       24 ar
  26       23       25 ar
  27       22       26 2
  28       26       27 1
  29       26       28 1
  30       28       12 ar
  31       28       20 ar
  32       16       29 1
  33        1       30 1
  34        1       31 1
  35        1       32 1
  36        2       33 1
  37        2       34 1
  38        4       35 1
  39        5       36 1
  40        8       37 1
  41        9       38 1
  42        9       39 1
  43       10       40 1
  44       10       41 1
  45       15       42 1
  46       15       43 1
  47       17       44 1
  48       17       45 1
  49       17       46 1
  50       18       47 1
  51       18       48 1
  52       18       49 1
  53       27       50 1
  54       27       51 1
  55       27       52 1

@<TRIPOS>MOLECULE

  52   55
SMALL
USER_CHARGES
@<TRIPOS>ATOM
   1 C1           4.9182    -6.1204     3.0288 C.3          1    LIG   0.0000
   2 C2           5.7548    -4.8599     3.1750 C.3          1    LIG   0.0000
   3 C3           5.1261    -3.7378     2.3655 C.ar         1    LIG   0.0000
   4 C4           4.1820    -2.9047     2.9559 C.ar         1    LIG   0.0000
   5 C5           3.6121    -1.8779     2.2103 C.ar         1    LIG   0.0000
   6 C6           3.9637    -1.6630     0.8800 C.ar         1    LIG   0.0000
   7 C7           4.8979    -2.5183     0.3345 C.ar         1    LIG   0.0000
   8 C8           5.4970    -3.5535     1.0398 C.ar         1    LIG   0.0000
   9 C9           5.0551    -2.0905    -1.1061 C.3          1    LIG   0.0000
  10 C10          4.5674    -0.6543    -1.0935 C.3          1    LIG   0.0000
  11 N11          3.5495    -0.7176    -0.0500 N.pl3        1    LIG   0.0000
  12 C12          2.3620     0.0316    -0.0237 C.ar         1    LIG   0.0000
  13 N13          1.2098    -0.6573    -0.0174 N.ar         1    LIG   0.0000
  14 C14          0.0214    -0.0336     0.0064 C.ar         1    LIG   0.0000
  15 C15         -1.2982    -0.7849     0.0160 C.3          1    LIG   0.0000
  16 N16         -1.7036    -1.0455     1.4048 N.4          1    LIG   1.0000
  17 C17         -0.6740    -1.8551     2.0720 C.3          1    LIG   0.0000
  18 C18         -1.8612     0.2307     2.1170 C.3          1    LIG   0.0000
  19 N19         -0.0586     1.2987     0.0251 N.ar         1    LIG   0.0000
  20 C20          1.1012     1.9476     0.0180 C.ar         1    LIG   0.0000
  21 S21          1.2013     3.6442     0.0381 S.3          1    LIG   0.0000
  22 C22          2.9006     3.7220     0.0130 C.2          1    LIG   0.0000
  23 C23          3.6724     4.9473     0.0140 C.2          1    LIG   0.0000
  24 O24          3.0897     6.0530     0.0345 O.co2        1    LIG   0.0000
  25 O25          4.8814     4.9009    -0.0049 O.co2        1    LIG  -1.0000
  26 C26          3.3760     2.4424    -0.0109 C.2          1    LIG   0.0000
  27 C27          4.8727     2.1826    -0.0387 C.3          1    LIG   0.0000
  28 C28          2.3723     1.4212    -0.0071 C.ar         1    LIG   0.0000
  29 H           -2.5726    -1.5403     1.4111 H            1    LIG   0.0000
  30 H            5.3319    -6.8587     3.5615 H            1    LIG   0.0000
  31 H            3.9920    -5.9465     3.3635 H            1    LIG   0.0000
  32 H            4.8801    -6.3854     2.0653 H            1    LIG   0.0000
  33 H            5.7929    -4.5949     4.1385 H            1    LIG   0.0000
  34 H            6.6810    -5.0338     2.8403 H            1    LIG   0.0000
  35 H            3.9147    -3.0427     3.9095 H            1    LIG   0.0000
  36 H            2.9346    -1.2805     2.6392 H            1    LIG   0.0000
  37 H            6.1746    -4.1479     0.6066 H            1    LIG   0.0000
  38 H            4.4939    -2.6549    -1.7115 H            1    LIG   0.0000
  39 H            6.0115    -2.1424    -1.3937 H            1    LIG   0.0000
  40 H            5.3013    -0.0189    -0.8531 H            1    LIG   0.0000
  41 H            4.1746    -0.3917    -1.9748 H            1    LIG   0.0000
  42 H           -1.9987    -0.2341    -0.4379 H            1    LIG   0.0000
  43 H           -1.1910    -1.6531    -0.4685 H            1    LIG   0.0000
  44 H           -0.9497    -2.0325     3.0168 H            1    LIG   0.0000
  45 H           -0.5668    -2.7233     1.5875 H            1    LIG   0.0000
  46 H            0.1950    -1.3604     2.0657 H            1    LIG   0.0000
  47 H           -2.1370     0.0534     3.0617 H            1    LIG   0.0000
  48 H           -0.9922     0.7255     2.1107 H            1    LIG   0.0000
  49 H           -2.5617     0.7815     1.6630 H            1    LIG   0.0000
  50 H            5.3625     3.0545    -0.0359 H            1    LIG   0.0000
  51 H            5.1338     1.6511     0.7671 H            1    LIG   0.0000
  52 H            5.1070     1.6713    -0.8656 H            1    LIG   0.0000
@<TRIPOS>BOND
   1        1        2 1
   2        2        3 1
   3        3        4 ar
   4        4        5 ar
   5        5        6 ar
   6        6        7 ar
   7        7        8 ar
   8        8        3 ar
   9        7        9 1
  10        9       10 1
  11       10       11 1
  12       11        6 1
  13       11       12 1
  14       12       13 ar
  15       13       14 ar
  16       14       15 1
  17       15       16 1
  18       16       17 1
  19       16       18 1
  20       14       19 ar
  21       19       20 ar
  22       20       21 1
  23       21       22 1
  24       22       23 1
  25       23       24 ar
  26       23       25 ar
  27       22       26 2
  28       26       27 1
  29       26       28 1
  30       28       12 ar
  31       28       20 ar
  32       16       29 1
  33        1       30 1
  34        1       31 1
  35        1       32 1
  36        2       33 1
  37        2       34 1
  38        4       35 1
  39        5       36 1
  40        8       37 1
  41        9       38 1
  42        9       39 1
  43       10       40 1
  44       10       41 1
  45       15       42 1
  46       15       43 1
  47       17       44 1
  48       17       45 1
  49       17       46 1
  50       18       47 1
  51       18       48 1
  52       18       49 1
  53       27       50 1
  54       27       51 1
  55       27       52 1

@<TRIPOS>MOLECULE

  52   55
SMALL
USER_CHARGES
@<TRIPOS>ATOM
   1 C1           4.9182    -6.1204     3.0288 C.3          1    LIG   0.0000
   2 C2           5.7548    -4.8599     3.1750 C.3          1    LIG   0.0000
   3 C3           5.1261    -3.7378     2.3655 C.ar         1    LIG   0.0000
   4 C4           4.1820    -2.9047     2.9559 C.ar         1    LIG   0.0000
   5 C5           3.6121    -1.8779     2.2103 C.ar         1    LIG   0.0000
   6 C6           3.9637    -1.6630     0.8800 C.ar         1    LIG   0.0000
   7 C7           4.8979    -2.5183     0.3345 C.ar         1    LIG   0.0000
   8 C8           5.4970    -3.5535     1.0398 C.ar         1    LIG   0.0000
   9 C9           5.0551    -2.0905    -1.1061 C.3          1    LIG   0.0000
  10 C10          4.5674    -0.6543    -1.0935 C.3          1    LIG   0.0000
  11 N11          3.5495    -0.7176    -0.0500 N.pl3        1    LIG   0.0000
  12 C12          2.3620     0.0316    -0.0237 C.ar         1    LIG   0.0000
  13 N13          1.2098    -0.6573    -0.0174 N.ar         1    LIG   0.0000
  14 C14          0.0214    -0.0336     0.0064 C.ar         1    LIG   0.0000
  15 C15         -1.2982    -0.7849     0.0160 C.3          1    LIG   0.0000
  16 N16         -1.7445    -1.0091    -1.3666 N.4          1    LIG   1.0000
  17 C17         -1.9225     0.2854    -2.0400 C.3          1    LIG   0.0000
  18 C18         -0.7353    -1.8005    -2.0849 C.3          1    LIG   0.0000
  19 N19         -0.0586     1.2987     0.0251 N.ar         1    LIG   0.0000
  20 C20          1.1012     1.9476     0.0180 C.ar         1    LIG   0.0000
  21 S21          1.2013     3.6442     0.0381 S.3          1    LIG   0.0000
  22 C22          2.9006     3.7220     0.0130 C.2          1    LIG   0.0000
  23 C23          3.6724     4.9473     0.0140 C.2          1    LIG   0.0000
  24 O24          3.0897     6.0530     0.0345 O.co2        1    LIG   0.0000
  25 O25          4.8814     4.9009    -0.0049 O.co2        1    LIG  -1.0000
  26 C26          3.3760     2.4424    -0.0109 C.2          1    LIG   0.0000
  27 C27          4.8727     2.1826    -0.0387 C.3          1    LIG   0.0000
  28 C28          2.3723     1.4212    -0.0071 C.ar         1    LIG   0.0000
  29 H           -2.6135    -1.5039    -1.3603 H            1    LIG   0.0000
  30 H            5.3319    -6.8587     3.5615 H            1    LIG   0.0000
  31 H            3.9920    -5.9465     3.3635 H            1    LIG   0.0000
  32 H            4.8801    -6.3854     2.0653 H            1    LIG   0.0000
  33 H            5.7929    -4.5949     4.1385 H            1    LIG   0.0000
  34 H            6.6810    -5.0338     2.8403 H            1    LIG   0.0000
  35 H            3.9147    -3.0427     3.9095 H            1    LIG   0.0000
  36 H            2.9346    -1.2805     2.6392 H            1    LIG   0.0000
  37 H            6.1746    -4.1479     0.6066 H            1    LIG   0.0000
  38 H            4.4939    -2.6549    -1.7115 H            1    LIG   0.0000
  39 H            6.0115    -2.1424    -1.3937 H            1    LIG   0.0000
  40 H            5.3013    -0.0189    -0.8531 H            1    LIG   0.0000
  41 H            4.1746    -0.3917    -1.9748 H            1    LIG   0.0000
  42 H           -1.1771    -1.6655     0.4741 H            1    LIG   0.0000
  43 H           -1.9848    -0.2465     0.5047 H            1    LIG   0.0000
  44 H           -2.2261     0.1328    -2.9805 H            1    LIG   0.0000
  45 H           -2.6090     0.8237    -1.5513 H            1    LIG   0.0000
  46 H           -1.0535     0.7801    -2.0463 H            1    LIG   0.0000
  47 H           -1.0388    -1.9530    -3.0255 H            1    LIG   0.0000
  48 H            0.1338    -1.3057    -2.0912 H            1    LIG   0.0000
  49 H           -0.6141    -2.6811    -1.6268 H            1    LIG   0.0000
  50 H            5.3625     3.0545    -0.0359 H            1    LIG   0.0000
  51 H            5.1338     1.6511     0.7671 H            1    LIG   0.0000
  52 H            5.1070     1.6713    -0.8656 H            1    LIG   0.0000
@<TRIPOS>BOND
   1        1        2 1
   2        2        3 1
   3        3        4 ar
   4        4        5 ar
   5        5        6 ar
   6        6        7 ar
   7        7        8 ar
   8        8        3 ar
   9        7        9 1
  10        9       10 1
  11       10       11 1
  12       11        6 1
  13       11       12 1
  14       12       13 ar
  15       13       14 ar
  16       14       15 1
  17       15       16 1
  18       16       17 1
  19       16       18 1
  20       14       19 ar
  21       19       20 ar
  22       20       21 1
  23       21       22 1
  24       22       23 1
  25       23       24 ar
  26       23       25 ar
  27       22       26 2
  28       26       27 1
  29       26       28 1
  30       28       12 ar
  31       28       20 ar
  32       16       29 1
  33        1       30 1
  34        1       31 1
  35        1       32 1
  36        2       33 1
  37        2       34 1
  38        4       35 1
  39        5       36 1
  40        8       37 1
  41        9       38 1
  42        9       39 1
  43       10       40 1
  44       10       41 1
  45       15       42 1
  46       15       43 1
  47       17       44 1
  48       17       45 1
  49       17       46 1
  50       18       47 1
  51       18       48 1
  52       18       49 1
  53       27       50 1
  54       27       51 1
  55       27       52 1

@<TRIPOS>MOLECULE

  52   55
SMALL
USER_CHARGES
@<TRIPOS>ATOM
   1 C1           8.9152     0.4365    -3.2782 C.3          1    LIG   0.0000
   2 C2           8.1330    -0.8585    -3.4256 C.3          1    LIG   0.0000
   3 C3           6.8759    -0.7907    -2.5743 C.ar         1    LIG   0.0000
   4 C4           5.6995    -0.2860    -3.1176 C.ar         1    LIG   0.0000
   5 C5           4.5517    -0.2290    -2.3339 C.ar         1    LIG   0.0000
   6 C6           4.5511    -0.6654    -1.0114 C.ar         1    LIG   0.0000
   7 C7           5.7419    -1.1508    -0.5131 C.ar         1    LIG   0.0000
   8 C8           6.9112    -1.2313    -1.2576 C.ar         1    LIG   0.0000
   9 C9           5.4692    -1.5057     0.9301 C.3          1    LIG   0.0000
  10 C10          3.9632    -1.6841     0.9617 C.3          1    LIG   0.0000
  11 N11          3.5495    -0.7176    -0.0500 N.pl3        1    LIG   0.0000
  12 C12          2.3620     0.0316    -0.0237 C.ar         1    LIG   0.0000
  13 N13          1.2098    -0.6573    -0.0174 N.ar         1    LIG   0.0000
  14 C14          0.0214    -0.0336     0.0064 C.ar         1    LIG   0.0000
  15 C15         -1.2982    -0.7849     0.0160 C.3          1    LIG   0.0000
  16 N16         -1.7036    -1.0455     1.4048 N.4          1    LIG   1.0000
  17 C17         -0.6740    -1.8551     2.0720 C.3          1    LIG   0.0000
  18 C18         -1.8612     0.2307     2.1170 C.3          1    LIG   0.0000
  19 N19         -0.0586     1.2987     0.0251 N.ar         1    LIG   0.0000
  20 C20          1.1012     1.9476     0.0180 C.ar         1    LIG   0.0000
  21 S21          1.2013     3.6442     0.0381 S.3          1    LIG   0.0000
  22 C22          2.9006     3.7220     0.0130 C.2          1    LIG   0.0000
  23 C23          3.6724     4.9473     0.0140 C.2          1    LIG   0.0000
  24 O24          3.0897     6.0530     0.0345 O.co2        1    LIG   0.0000
  25 O25          4.8814     4.9009    -0.0049 O.co2        1    LIG  -1.0000
  26 C26          3.3760     2.4424    -0.0109 C.2          1    LIG   0.0000
  27 C27          4.8727     2.1826    -0.0387 C.3          1    LIG   0.0000
  28 C28          2.3723     1.4212    -0.0071 C.ar         1    LIG   0.0000
  29 H           -2.5726    -1.5403     1.4111 H            1    LIG   0.0000
  30 H            9.7423     0.3919    -3.8384 H            1    LIG   0.0000
  31 H            8.3493     1.2039    -3.5798 H            1    LIG   0.0000
  32 H            9.1684     0.5657    -2.3195 H            1    LIG   0.0000
  33 H            7.8797    -0.9876    -4.3843 H            1    LIG   0.0000
  34 H            8.6989    -1.6258    -3.1240 H            1    LIG   0.0000
  35 H            5.6789     0.0338    -4.0649 H            1    LIG   0.0000
  36 H            3.7077     0.1335    -2.7291 H            1    LIG   0.0000
  37 H            7.7526    -1.5953    -0.8581 H            1    LIG   0.0000
  38 H            5.7563    -0.7684     1.5415 H            1    LIG   0.0000
  39 H            5.9364    -2.3520     1.1861 H            1    LIG   0.0000
  40 H            3.6980    -2.6151     0.7109 H            1    LIG   0.0000
  41 H            3.5853    -1.4604     1.8601 H            1    LIG   0.0000
  42 H           -1.9987    -0.2341    -0.4379 H            1    LIG   0.0000
  43 H           -1.1910    -1.6531    -0.4685 H            1    LIG   0.0000
  44 H           -0.9497    -2.0325     3.0168 H            1    LIG   0.0000
  45 H           -0.5668    -2.7233     1.5875 H            1    LIG   0.0000
  46 H            0.1950    -1.3604     2.0657 H            1    LIG   0.0000
  47 H           -2.1370     0.0534     3.0617 H            1    LIG   0.0000
  48 H           -0.9922     0.7255     2.1107 H            1    LIG   0.0000
  49 H           -2.5617     0.7815     1.6630 H            1    LIG   0.0000
  50 H            5.3625     3.0545    -0.0359 H            1    LIG   0.0000
  51 H            5.1338     1.6511     0.7671 H            1    LIG   0.0000
  52 H            5.1070     1.6713    -0.8656 H            1    LIG   0.0000
@<TRIPOS>BOND
   1        1        2 1
   2        2        3 1
   3        3        4 ar
   4        4        5 ar
   5        5        6 ar
   6        6        7 ar
   7        7        8 ar
   8        8        3 ar
   9        7        9 1
  10        9       10 1
  11       10       11 1
  12       11        6 1
  13       11       12 1
  14       12       13 ar
  15       13       14 ar
  16       14       15 1
  17       15       16 1
  18       16       17 1
  19       16       18 1
  20       14       19 ar
  21       19       20 ar
  22       20       21 1
  23       21       22 1
  24       22       23 1
  25       23       24 ar
  26       23       25 ar
  27       22       26 2
  28       26       27 1
  29       26       28 1
  30       28       12 ar
  31       28       20 ar
  32       16       29 1
  33        1       30 1
  34        1       31 1
  35        1       32 1
  36        2       33 1
  37        2       34 1
  38        4       35 1
  39        5       36 1
  40        8       37 1
  41        9       38 1
  42        9       39 1
  43       10       40 1
  44       10       41 1
  45       15       42 1
  46       15       43 1
  47       17       44 1
  48       17       45 1
  49       17       46 1
  50       18       47 1
  51       18       48 1
  52       18       49 1
  53       27       50 1
  54       27       51 1
  55       27       52 1

@<TRIPOS>MOLECULE

  52   55
SMALL
USER_CHARGES
@<TRIPOS>ATOM
   1 C1           8.9152     0.4365    -3.2782 C.3          1    LIG   0.0000
   2 C2           8.1330    -0.8585    -3.4256 C.3          1    LIG   0.0000
   3 C3           6.8759    -0.7907    -2.5743 C.ar         1    LIG   0.0000
   4 C4           5.6995    -0.2860    -3.1176 C.ar         1    LIG   0.0000
   5 C5           4.5517    -0.2290    -2.3339 C.ar         1    LIG   0.0000
   6 C6           4.5511    -0.6654    -1.0114 C.ar         1    LIG   0.0000
   7 C7           5.7419    -1.1508    -0.5131 C.ar         1    LIG   0.0000
   8 C8           6.9112    -1.2313    -1.2576 C.ar         1    LIG   0.0000
   9 C9           5.4692    -1.5057     0.9301 C.3          1    LIG   0.0000
  10 C10          3.9632    -1.6841     0.9617 C.3          1    LIG   0.0000
  11 N11          3.5495    -0.7176    -0.0500 N.pl3        1    LIG   0.0000
  12 C12          2.3620     0.0316    -0.0237 C.ar         1    LIG   0.0000
  13 N13          1.2098    -0.6573    -0.0174 N.ar         1    LIG   0.0000
  14 C14          0.0214    -0.0336     0.0064 C.ar         1    LIG   0.0000
  15 C15         -1.2982    -0.7849     0.0160 C.3          1    LIG   0.0000
  16 N16         -1.7445    -1.0091    -1.3666 N.4          1    LIG   1.0000
  17 C17         -1.9225     0.2854    -2.0400 C.3          1    LIG   0.0000
  18 C18         -0.7353    -1.8005    -2.0849 C.3          1    LIG   0.0000
  19 N19         -0.0586     1.2987     0.0251 N.ar         1    LIG   0.0000
  20 C20          1.1012     1.9476     0.0180 C.ar         1    LIG   0.0000
  21 S21          1.2013     3.6442     0.0381 S.3          1    LIG   0.0000
  22 C22          2.9006     3.7220     0.0130 C.2          1    LIG   0.0000
  23 C23          3.6724     4.9473     0.0140 C.2          1    LIG   0.0000
  24 O24          3.0897     6.0530     0.0345 O.co2        1    LIG   0.0000
  25 O25          4.8814     4.9009    -0.0049 O.co2        1    LIG  -1.0000
  26 C26          3.3760     2.4424    -0.0109 C.2          1    LIG   0.0000
  27 C27          4.8727     2.1826    -0.0387 C.3          1    LIG   0.0000
  28 C28          2.3723     1.4212    -0.0071 C.ar         1    LIG   0.0000
  29 H           -2.6135    -1.5039    -1.3603 H            1    LIG   0.0000
  30 H            9.7423     0.3919    -3.8384 H            1    LIG   0.0000
  31 H            8.3493     1.2039    -3.5798 H            1    LIG   0.0000
  32 H            9.1684     0.5657    -2.3195 H            1    LIG   0.0000
  33 H            7.8797    -0.9876    -4.3843 H            1    LIG   0.0000
  34 H            8.6989    -1.6258    -3.1240 H            1    LIG   0.0000
  35 H            5.6789     0.0338    -4.0649 H            1    LIG   0.0000
  36 H            3.7077     0.1335    -2.7291 H            1    LIG   0.0000
  37 H            7.7526    -1.5953    -0.8581 H            1    LIG   0.0000
  38 H            5.7563    -0.7684     1.5415 H            1    LIG   0.0000
  39 H            5.9364    -2.3520     1.1861 H            1    LIG   0.0000
  40 H            3.6980    -2.6151     0.7109 H            1    LIG   0.0000
  41 H            3.5853    -1.4604     1.8601 H            1    LIG   0.0000
  42 H           -1.1771    -1.6655     0.4741 H            1    LIG   0.0000
  43 H           -1.9848    -0.2465     0.5047 H            1    LIG   0.0000
  44 H           -2.2261     0.1328    -2.9805 H            1    LIG   0.0000
  45 H           -2.6090     0.8237    -1.5513 H            1    LIG   0.0000
  46 H           -1.0535     0.7801    -2.0463 H            1    LIG   0.0000
  47 H           -1.0388    -1.9530    -3.0255 H            1    LIG   0.0000
  48 H            0.1338    -1.3057    -2.0912 H            1    LIG   0.0000
  49 H           -0.6141    -2.6811    -1.6268 H            1    LIG   0.0000
  50 H            5.3625     3.0545    -0.0359 H            1    LIG   0.0000
  51 H            5.1338     1.6511     0.7671 H            1    LIG   0.0000
  52 H            5.1070     1.6713    -0.8656 H            1    LIG   0.0000
@<TRIPOS>BOND
   1        1        2 1
   2        2        3 1
   3        3        4 ar
   4        4        5 ar
   5        5        6 ar
   6        6        7 ar
   7        7        8 ar
   8        8        3 ar
   9        7        9 1
  10        9       10 1
  11       10       11 1
  12       11        6 1
  13       11       12 1
  14       12       13 ar
  15       13       14 ar
  16       14       15 1
  17       15       16 1
  18       16       17 1
  19       16       18 1
  20       14       19 ar
  21       19       20 ar
  22       20       21 1
  23       21       22 1
  24       22       23 1
  25       23       24 ar
  26       23       25 ar
  27       22       26 2
  28       26       27 1
  29       26       28 1
  30       28       12 ar
  31       28       20 ar
  32       16       29 1
  33        1       30 1
  34        1       31 1
  35        1       32 1
  36        2       33 1
  37        2       34 1
  38        4       35 1
  39        5       36 1
  40        8       37 1
  41        9       38 1
  42        9       39 1
  43       10       40 1
  44       10       41 1
  45       15       42 1
  46       15       43 1
  47       17       44 1
  48       17       45 1
  49       17       46 1
  50       18       47 1
  51       18       48 1
  52       18       49 1
  53       27       50 1
  54       27       51 1
  55       27       52 1

@<TRIPOS>MOLECULE

  52   55
SMALL
USER_CHARGES
@<TRIPOS>ATOM
   1 C1           8.1890    -2.1986    -4.1406 C.3          1    LIG   0.0000
   2 C2           8.1330    -0.8585    -3.4256 C.3          1    LIG   0.0000
   3 C3           6.8759    -0.7907    -2.5743 C.ar         1    LIG   0.0000
   4 C4           5.6995    -0.2860    -3.1176 C.ar         1    LIG   0.0000
   5 C5           4.5517    -0.2290    -2.3339 C.ar         1    LIG   0.0000
   6 C6           4.5511    -0.6654    -1.0114 C.ar         1    LIG   0.0000
   7 C7           5.7419    -1.1508    -0.5131 C.ar         1    LIG   0.0000
   8 C8           6.9112    -1.2313    -1.2576 C.ar         1    LIG   0.0000
   9 C9           5.4692    -1.5057     0.9301 C.3          1    LIG   0.0000
  10 C10          3.9632    -1.6841     0.9617 C.3          1    LIG   0.0000
  11 N11          3.5495    -0.7176    -0.0500 N.pl3        1    LIG   0.0000
  12 C12          2.3620     0.0316    -0.0237 C.ar         1    LIG   0.0000
  13 N13          1.2098    -0.6573    -0.0174 N.ar         1    LIG   0.0000
  14 C14          0.0214    -0.0336     0.0064 C.ar         1    LIG   0.0000
  15 C15         -1.2982    -0.7849     0.0160 C.3          1    LIG   0.0000
  16 N16         -1.7036    -1.0455     1.4048 N.4          1    LIG   1.0000
  17 C17         -0.6740    -1.8551     2.0720 C.3          1    LIG   0.0000
  18 C18         -1.8612     0.2307     2.1170 C.3          1    LIG   0.0000
  19 N19         -0.0586     1.2987     0.0251 N.ar         1    LIG   0.0000
  20 C20          1.1012     1.9476     0.0180 C.ar         1    LIG   0.0000
  21 S21          1.2013     3.6442     0.0381 S.3          1    LIG   0.0000
  22 C22          2.9006     3.7220     0.0130 C.2          1    LIG   0.0000
  23 C23          3.6724     4.9473     0.0140 C.2          1    LIG   0.0000
  24 O24          3.0897     6.0530     0.0345 O.co2        1    LIG   0.0000
  25 O25          4.8814     4.9009    -0.0049 O.co2        1    LIG  -1.0000
  26 C26          3.3760     2.4424    -0.0109 C.2          1    LIG   0.0000
  27 C27          4.8727     2.1826    -0.0387 C.3          1    LIG   0.0000
  28 C28          2.3723     1.4212    -0.0071 C.ar         1    LIG   0.0000
  29 H           -2.5726    -1.5403     1.4111 H            1    LIG   0.0000
  30 H            9.0162    -2.2432    -4.7008 H            1    LIG   0.0000
  31 H            8.2035    -2.9362    -3.4655 H            1    LIG   0.0000
  32 H            7.3843    -2.2981    -4.7259 H            1    LIG   0.0000
  33 H            8.9377    -0.7590    -2.8403 H            1    LIG   0.0000
  34 H            8.1186    -0.1208    -4.1006 H            1    LIG   0.0000
  35 H            5.6789     0.0338    -4.0649 H            1    LIG   0.0000
  36 H            3.7077     0.1335    -2.7291 H            1    LIG   0.0000
  37 H            7.7526    -1.5953    -0.8581 H            1    LIG   0.0000
  38 H            5.7563    -0.7684     1.5415 H            1    LIG   0.0000
  39 H            5.9364    -2.3520     1.1861 H            1    LIG   0.0000
  40 H            3.6980    -2.6151     0.7109 H            1    LIG   0.0000
  41 H            3.5853    -1.4604     1.8601 H            1    LIG   0.0000
  42 H           -1.9987    -0.2341    -0.4379 H            1    LIG   0.0000
  43 H           -1.1910    -1.6531    -0.4685 H            1    LIG   0.0000
  44 H           -0.9497    -2.0325     3.0168 H            1    LIG   0.0000
  45 H           -0.5668    -2.7233     1.5875 H            1    LIG   0.0000
  46 H            0.1950    -1.3604     2.0657 H            1    LIG   0.0000
  47 H           -2.1370     0.0534     3.0617 H            1    LIG   0.0000
  48 H           -0.9922     0.7255     2.1107 H            1    LIG   0.0000
  49 H           -2.5617     0.7815     1.6630 H            1    LIG   0.0000
  50 H            5.3625     3.0545    -0.0359 H            1    LIG   0.0000
  51 H            5.1338     1.6511     0.7671 H            1    LIG   0.0000
  52 H            5.1070     1.6713    -0.8656 H            1    LIG   0.0000
@<TRIPOS>BOND
   1        1        2 1
   2        2        3 1
   3        3        4 ar
   4        4        5 ar
   5        5        6 ar
   6        6        7 ar
   7        7        8 ar
   8        8        3 ar
   9        7        9 1
  10        9       10 1
  11       10       11 1
  12       11        6 1
  13       11       12 1
  14       12       13 ar
  15       13       14 ar
  16       14       15 1
  17       15       16 1
  18       16       17 1
  19       16       18 1
  20       14       19 ar
  21       19       20 ar
  22       20       21 1
  23       21       22 1
  24       22       23 1
  25       23       24 ar
  26       23       25 ar
  27       22       26 2
  28       26       27 1
  29       26       28 1
  30       28       12 ar
  31       28       20 ar
  32       16       29 1
  33        1       30 1
  34        1       31 1
  35        1       32 1
  36        2       33 1
  37        2       34 1
  38        4       35 1
  39        5       36 1
  40        8       37 1
  41        9       38 1
  42        9       39 1
  43       10       40 1
  44       10       41 1
  45       15       42 1
  46       15       43 1
  47       17       44 1
  48       17       45 1
  49       17       46 1
  50       18       47 1
  51       18       48 1
  52       18       49 1
  53       27       50 1
  54       27       51 1
  55       27       52 1

@<TRIPOS>MOLECULE

  52   55
SMALL
USER_CHARGES
@<TRIPOS>ATOM
   1 C1           8.1890    -2.1986    -4.1406 C.3          1    LIG   0.0000
   2 C2           8.1330    -0.8585    -3.4256 C.3          1    LIG   0.0000
   3 C3           6.8759    -0.7907    -2.5743 C.ar         1    LIG   0.0000
   4 C4           5.6995    -0.2860    -3.1176 C.ar         1    LIG   0.0000
   5 C5           4.5517    -0.2290    -2.3339 C.ar         1    LIG   0.0000
   6 C6           4.5511    -0.6654    -1.0114 C.ar         1    LIG   0.0000
   7 C7           5.7419    -1.1508    -0.5131 C.ar         1    LIG   0.0000
   8 C8           6.9112    -1.2313    -1.2576 C.ar         1    LIG   0.0000
   9 C9           5.4692    -1.5057     0.9301 C.3          1    LIG   0.0000
  10 C10          3.9632    -1.6841     0.9617 C.3          1    LIG   0.0000
  11 N11          3.5495    -0.7176    -0.0500 N.pl3        1    LIG   0.0000
  12 C12          2.3620     0.0316    -0.0237 C.ar         1    LIG   0.0000
  13 N13          1.2098    -0.6573    -0.0174 N.ar         1    LIG   0.0000
  14 C14          0.0214    -0.0336     0.0064 C.ar         1    LIG   0.0000
  15 C15         -1.2982    -0.7849     0.0160 C.3          1    LIG   0.0000
  16 N16         -1.7445    -1.0091    -1.3666 N.4          1    LIG   1.0000
  17 C17         -1.9225     0.2854    -2.0400 C.3          1    LIG   0.0000
  18 C18         -0.7353    -1.8005    -2.0849 C.3          1    LIG   0.0000
  19 N19         -0.0586     1.2987     0.0251 N.ar         1    LIG   0.0000
  20 C20          1.1012     1.9476     0.0180 C.ar         1    LIG   0.0000
  21 S21          1.2013     3.6442     0.0381 S.3          1    LIG   0.0000
  22 C22          2.9006     3.7220     0.0130 C.2          1    LIG   0.0000
  23 C23          3.6724     4.9473     0.0140 C.2          1    LIG   0.0000
  24 O24          3.0897     6.0530     0.0345 O.co2        1    LIG   0.0000
  25 O25          4.8814     4.9009    -0.0049 O.co2        1    LIG  -1.0000
  26 C26          3.3760     2.4424    -0.0109 C.2          1    LIG   0.0000
  27 C27          4.8727     2.1826    -0.0387 C.3          1    LIG   0.0000
  28 C28          2.3723     1.4212    -0.0071 C.ar         1    LIG   0.0000
  29 H           -2.6135    -1.5039    -1.3603 H            1    LIG   0.0000
  30 H            9.0162    -2.2432    -4.7008 H            1    LIG   0.0000
  31 H            8.2035    -2.9362    -3.4655 H            1    LIG   0.0000
  32 H            7.3843    -2.2981    -4.7259 H            1    LIG   0.0000
  33 H            8.9377    -0.7590    -2.8403 H            1    LIG   0.0000
  34 H            8.1186    -0.1208    -4.1006 H            1    LIG   0.0000
  35 H            5.6789     0.0338    -4.0649 H            1    LIG   0.0000
  36 H            3.7077     0.1335    -2.7291 H            1    LIG   0.0000
  37 H            7.7526    -1.5953    -0.8581 H            1    LIG   0.0000
  38 H            5.7563    -0.7684     1.5415 H            1    LIG   0.0000
  39 H            5.9364    -2.3520     1.1861 H            1    LIG   0.0000
  40 H            3.6980    -2.6151     0.7109 H            1    LIG   0.0000
  41 H            3.5853    -1.4604     1.8601 H            1    LIG   0.0000
  42 H           -1.1771    -1.6655     0.4741 H            1    LIG   0.0000
  43 H           -1.9848    -0.2465     0.5047 H            1    LIG   0.0000
  44 H           -2.2261     0.1328    -2.9805 H            1    LIG   0.0000
  45 H           -2.6090     0.8237    -1.5513 H            1    LIG   0.0000
  46 H           -1.0535     0.7801    -2.0463 H            1    LIG   0.0000
  47 H           -1.0388    -1.9530    -3.0255 H            1    LIG   0.0000
  48 H            0.1338    -1.3057    -2.0912 H            1    LIG   0.0000
  49 H           -0.6141    -2.6811    -1.6268 H            1    LIG   0.0000
  50 H            5.3625     3.0545    -0.0359 H            1    LIG   0.0000
  51 H            5.1338     1.6511     0.7671 H            1    LIG   0.0000
  52 H            5.1070     1.6713    -0.8656 H            1    LIG   0.0000
@<TRIPOS>BOND
   1        1        2 1
   2        2        3 1
   3        3        4 ar
   4        4        5 ar
   5        5        6 ar
   6        6        7 ar
   7        7        8 ar
   8        8        3 ar
   9        7        9 1
  10        9       10 1
  11       10       11 1
  12       11        6 1
  13       11       12 1
  14       12       13 ar
  15       13       14 ar
  16       14       15 1
  17       15       16 1
  18       16       17 1
  19       16       18 1
  20       14       19 ar
  21       19       20 ar
  22       20       21 1
  23       21       22 1
  24       22       23 1
  25       23       24 ar
  26       23       25 ar
  27       22       26 2
  28       26       27 1
  29       26       28 1
  30       28       12 ar
  31       28       20 ar
  32       16       29 1
  33        1       30 1
  34        1       31 1
  35        1       32 1
  36        2       33 1
  37        2       34 1
  38        4       35 1
  39        5       36 1
  40        8       37 1
  41        9       38 1
  42        9       39 1
  43       10       40 1
  44       10       41 1
  45       15       42 1
  46       15       43 1
  47       17       44 1
  48       17       45 1
  49       17       46 1
  50       18       47 1
  51       18       48 1
  52       18       49 1
  53       27       50 1
  54       27       51 1
  55       27       52 1

@<TRIPOS>MOLECULE

  52   55
SMALL
USER_CHARGES
@<TRIPOS>ATOM
   1 C1           6.9668    -4.3228     3.8841 C.3          1    LIG   0.0000
   2 C2           5.7085    -4.8208     3.1918 C.3          1    LIG   0.0000
   3 C3           5.0837    -3.6850     2.3983 C.ar         1    LIG   0.0000
   4 C4           4.1383    -2.8521     2.9856 C.ar         1    LIG   0.0000
   5 C5           3.5763    -1.8324     2.2262 C.ar         1    LIG   0.0000
   6 C6           3.9464    -1.6477     0.8981 C.ar         1    LIG   0.0000
   7 C7           4.8812    -2.4900     0.3341 C.ar         1    LIG   0.0000
   8 C8           5.4729    -3.5047     1.0735 C.ar         1    LIG   0.0000
   9 C9           5.0431    -2.0756    -1.1137 C.3          1    LIG   0.0000
  10 C10          4.5597    -0.6477    -1.0958 C.3          1    LIG   0.0000
  11 N11          3.5454    -0.7150    -0.0499 N.pl3        1    LIG   0.0000
  12 C12          2.3620     0.0316    -0.0237 C.ar         1    LIG   0.0000
  13 N13          1.2098    -0.6573    -0.0174 N.ar         1    LIG   0.0000
  14 C14          0.0214    -0.0336     0.0064 C.ar         1    LIG   0.0000
  15 C15         -1.2982    -0.7849     0.0160 C.3          1    LIG   0.0000
  16 N16         -1.7036    -1.0455     1.4048 N.4          1    LIG   1.0000
  17 C17         -0.6740    -1.8551     2.0720 C.3          1    LIG   0.0000
  18 C18         -1.8612     0.2307     2.1170 C.3          1    LIG   0.0000
  19 N19         -0.0586     1.2987     0.0251 N.ar         1    LIG   0.0000
  20 C20          1.1012     1.9476     0.0180 C.ar         1    LIG   0.0000
  21 S21          1.2013     3.6442     0.0381 S.3          1    LIG   0.0000
  22 C22          2.9006     3.7220     0.0130 C.2          1    LIG   0.0000
  23 C23          3.6724     4.9473     0.0140 C.2          1    LIG   0.0000
  24 O24          3.5619     5.7548     0.9619 O.co2        1    LIG   0.0000
  25 O25          4.4242     5.1896    -0.9026 O.co2        1    LIG  -1.0000
  26 C26          3.3760     2.4424    -0.0109 C.2          1    LIG   0.0000
  27 C27          4.8727     2.1826    -0.0387 C.3          1    LIG   0.0000
  28 C28          2.3723     1.4212    -0.0071 C.ar         1    LIG   0.0000
  29 H           -2.5726    -1.5403     1.4111 H            1    LIG   0.0000
  30 H            7.3779    -5.0701     4.4062 H            1    LIG   0.0000
  31 H            7.6180    -3.9975     3.1984 H            1    LIG   0.0000
  32 H            6.7322    -3.5733     4.5031 H            1    LIG   0.0000
  33 H            5.9431    -5.5703     2.5727 H            1    LIG   0.0000
  34 H            5.0573    -5.1461     3.8774 H            1    LIG   0.0000
  35 H            3.8668    -2.9844     3.9389 H            1    LIG   0.0000
  36 H            2.8981    -1.2246     2.6394 H            1    LIG   0.0000
  37 H            6.1666    -4.0959     0.6621 H            1    LIG   0.0000
  38 H            4.4806    -2.6408    -1.7171 H            1    LIG   0.0000
  39 H            5.9993    -2.1306    -1.4012 H            1    LIG   0.0000
  40 H            5.2945    -0.0134    -0.8555 H            1    LIG   0.0000
  41 H            4.1644    -0.3820    -1.9751 H            1    LIG   0.0000
  42 H           -1.9987    -0.2341    -0.4379 H            1    LIG   0.0000
  43 H           -1.1910    -1.6531    -0.4685 H            1    LIG   0.0000
  44 H           -0.9497    -2.0325     3.0168 H            1    LIG   0.0000
  45 H           -0.5668    -2.7233     1.5875 H            1    LIG   0.0000
  46 H            0.1950    -1.3604     2.0657 H            1    LIG   0.0000
  47 H           -2.1370     0.0534     3.0617 H            1    LIG   0.0000
  48 H           -0.9922     0.7255     2.1107 H            1    LIG   0.0000
  49 H           -2.5617     0.7815     1.6630 H            1    LIG   0.0000
  50 H            5.3625     3.0545    -0.0359 H            1    LIG   0.0000
  51 H            5.1338     1.6511     0.7671 H            1    LIG   0.0000
  52 H            5.1070     1.6713    -0.8656 H            1    LIG   0.0000
@<TRIPOS>BOND
   1        1        2 1
   2        2        3 1
   3        3        4 ar
   4        4        5 ar
   5        5        6 ar
   6        6        7 ar
   7        7        8 ar
   8        8        3 ar
   9        7        9 1
  10        9       10 1
  11       10       11 1
  12       11        6 1
  13       11       12 1
  14       12       13 ar
  15       13       14 ar
  16       14       15 1
  17       15       16 1
  18       16       17 1
  19       16       18 1
  20       14       19 ar
  21       19       20 ar
  22       20       21 1
  23       21       22 1
  24       22       23 1
  25       23       24 ar
  26       23       25 ar
  27       22       26 2
  28       26       27 1
  29       26       28 1
  30       28       12 ar
  31       28       20 ar
  32       16       29 1
  33        1       30 1
  34        1       31 1
  35        1       32 1
  36        2       33 1
  37        2       34 1
  38        4       35 1
  39        5       36 1
  40        8       37 1
  41        9       38 1
  42        9       39 1
  43       10       40 1
  44       10       41 1
  45       15       42 1
  46       15       43 1
  47       17       44 1
  48       17       45 1
  49       17       46 1
  50       18       47 1
  51       18       48 1
  52       18       49 1
  53       27       50 1
  54       27       51 1
  55       27       52 1

@<TRIPOS>MOLECULE

  52   55
SMALL
USER_CHARGES
@<TRIPOS>ATOM
   1 C1           6.9668    -4.3228     3.8841 C.3          1    LIG   0.0000
   2 C2           5.7085    -4.8208     3.1918 C.3          1    LIG   0.0000
   3 C3           5.0837    -3.6850     2.3983 C.ar         1    LIG   0.0000
   4 C4           4.1383    -2.8521     2.9856 C.ar         1    LIG   0.0000
   5 C5           3.5763    -1.8324     2.2262 C.ar         1    LIG   0.0000
   6 C6           3.9464    -1.6477     0.8981 C.ar         1    LIG   0.0000
   7 C7           4.8812    -2.4900     0.3341 C.ar         1    LIG   0.0000
   8 C8           5.4729    -3.5047     1.0735 C.ar         1    LIG   0.0000
   9 C9           5.0431    -2.0756    -1.1137 C.3          1    LIG   0.0000
  10 C10          4.5597    -0.6477    -1.0958 C.3          1    LIG   0.0000
  11 N11          3.5454    -0.7150    -0.0499 N.pl3        1    LIG   0.0000
  12 C12          2.3620     0.0316    -0.0237 C.ar         1    LIG   0.0000
  13 N13          1.2098    -0.6573    -0.0174 N.ar         1    LIG   0.0000
  14 C14          0.0214    -0.0336     0.0064 C.ar         1    LIG   0.0000
  15 C15         -1.2982    -0.7849     0.0160 C.3          1    LIG   0.0000
  16 N16         -1.7445    -1.0091    -1.3666 N.4          1    LIG   1.0000
  17 C17         -1.9225     0.2854    -2.0400 C.3          1    LIG   0.0000
  18 C18         -0.7353    -1.8005    -2.0849 C.3          1    LIG   0.0000
  19 N19         -0.0586     1.2987     0.0251 N.ar         1    LIG   0.0000
  20 C20          1.1012     1.9476     0.0180 C.ar         1    LIG   0.0000
  21 S21          1.2013     3.6442     0.0381 S.3          1    LIG   0.0000
  22 C22          2.9006     3.7220     0.0130 C.2          1    LIG   0.0000
  23 C23          3.6724     4.9473     0.0140 C.2          1    LIG   0.0000
  24 O24          3.5619     5.7548     0.9619 O.co2        1    LIG   0.0000
  25 O25          4.4242     5.1896    -0.9026 O.co2        1    LIG  -1.0000
  26 C26          3.3760     2.4424    -0.0109 C.2          1    LIG   0.0000
  27 C27          4.8727     2.1826    -0.0387 C.3          1    LIG   0.0000
  28 C28          2.3723     1.4212    -0.0071 C.ar         1    LIG   0.0000
  29 H           -2.6135    -1.5039    -1.3603 H            1    LIG   0.0000
  30 H            7.3779    -5.0701     4.4062 H            1    LIG   0.0000
  31 H            7.6180    -3.9975     3.1984 H            1    LIG   0.0000
  32 H            6.7322    -3.5733     4.5031 H            1    LIG   0.0000
  33 H            5.9431    -5.5703     2.5727 H            1    LIG   0.0000
  34 H            5.0573    -5.1461     3.8774 H            1    LIG   0.0000
  35 H            3.8668    -2.9844     3.9389 H            1    LIG   0.0000
  36 H            2.8981    -1.2246     2.6394 H            1    LIG   0.0000
  37 H            6.1666    -4.0959     0.6621 H            1    LIG   0.0000
  38 H            4.4806    -2.6408    -1.7171 H            1    LIG   0.0000
  39 H            5.9993    -2.1306    -1.4012 H            1    LIG   0.0000
  40 H            5.2945    -0.0134    -0.8555 H            1    LIG   0.0000
  41 H            4.1644    -0.3820    -1.9751 H            1    LIG   0.0000
  42 H           -1.1771    -1.6655     0.4741 H            1    LIG   0.0000
  43 H           -1.9848    -0.2465     0.5047 H            1    LIG   0.0000
  44 H           -2.2261     0.1328    -2.9805 H            1    LIG   0.0000
  45 H           -2.6090     0.8237    -1.5513 H            1    LIG   0.0000
  46 H           -1.0535     0.7801    -2.0463 H            1    LIG   0.0000
  47 H           -1.0388    -1.9530    -3.0255 H            1    LIG   0.0000
  48 H            0.1338    -1.3057    -2.0912 H            1    LIG   0.0000
  49 H           -0.6141    -2.6811    -1.6268 H            1    LIG   0.0000
  50 H            5.3625     3.0545    -0.0359 H            1    LIG   0.0000
  51 H            5.1338     1.6511     0.7671 H            1    LIG   0.0000
  52 H            5.1070     1.6713    -0.8656 H            1    LIG   0.0000
@<TRIPOS>BOND
   1        1        2 1
   2        2        3 1
   3        3        4 ar
   4        4        5 ar
   5        5        6 ar
   6        6        7 ar
   7        7        8 ar
   8        8        3 ar
   9        7        9 1
  10        9       10 1
  11       10       11 1
  12       11        6 1
  13       11       12 1
  14       12       13 ar
  15       13       14 ar
  16       14       15 1
  17       15       16 1
  18       16       17 1
  19       16       18 1
  20       14       19 ar
  21       19       20 ar
  22       20       21 1
  23       21       22 1
  24       22       23 1
  25       23       24 ar
  26       23       25 ar
  27       22       26 2
  28       26       27 1
  29       26       28 1
  30       28       12 ar
  31       28       20 ar
  32       16       29 1
  33        1       30 1
  34        1       31 1
  35        1       32 1
  36        2       33 1
  37        2       34 1
  38        4       35 1
  39        5       36 1
  40        8       37 1
  41        9       38 1
  42        9       39 1
  43       10       40 1
  44       10       41 1
  45       15       42 1
  46       15       43 1
  47       17       44 1
  48       17       45 1
  49       17       46 1
  50       18       47 1
  51       18       48 1
  52       18       49 1
  53       27       50 1
  54       27       51 1
  55       27       52 1

