@<TRIPOS>MOLECULE
*****
 52 55 0 0 0
SMALL
USER_CHARGES

@<TRIPOS>ATOM
      1 C1          8.2836   -2.2812    3.9196 C.3     1  LIG1        0.0000
      2 C2          8.2053   -0.9291    3.2295 C.3     1  LIG1        0.0000
      3 C3          6.9245   -0.8497    2.4141 C.3     1  LIG1        0.0000
      4 C4          5.7620   -0.3541    2.9965 C.3     1  LIG1        0.0000
      5 C5          4.5985   -0.2822    2.2358 C.3     1  LIG1        0.0000
      6 C6          4.5623   -0.6857    0.9037 C.3     1  LIG1        0.0000
      7 C7          5.7404   -1.1710    0.3607 C.3     1  LIG1        0.0000
      8 C8          6.9168   -1.2665    1.0871 C.3     1  LIG1        0.0000
      9 C9          5.4415   -1.5013   -1.0914 C.3     1  LIG1        0.0000
     10 C10         3.9432   -1.6625   -1.0920 C.3     1  LIG1        0.0000
     11 N11         3.5452   -0.7149   -0.0499 N.pl3   1  LIG1        0.0000
     12 C12         2.3620    0.0316   -0.0237 C.3     1  LIG1        0.0000
     13 N13         1.2098   -0.6573   -0.0174 N.pl3   1  LIG1        0.0000
     14 C14         0.0214   -0.0336    0.0064 C.3     1  LIG1        0.0000
     15 C15        -1.2982   -0.7849    0.0160 C.3     1  LIG1        0.0000
     16 N16        -1.7445   -1.0091   -1.3666 N.4     1  LIG1        1.0000
     17 C17        -1.9225    0.2854   -2.0400 C.3     1  LIG1        0.0000
     18 C18        -0.7353   -1.8005   -2.0849 C.3     1  LIG1        0.0000
     19 N19        -0.0586    1.2987    0.0251 N.pl3   1  LIG1        0.0000
     20 C20         1.1012    1.9476    0.0180 C.3     1  LIG1        0.0000
     21 S21         1.2013    3.6442    0.0381 S.3     1  LIG1        0.0000
     22 C22         2.9006    3.7220    0.0130 C.2     1  LIG1        0.0000
     23 C23         3.6724    4.9473    0.0140 C.3     1  LIG1        0.0000
     24 O24         3.0897    6.0530    0.0345 O.2     1  LIG1        0.0000
     25 O25         4.8814    4.9009   -0.0049 O.2     1  LIG1       -1.0000
     26 C26         3.3760    2.4424   -0.0109 C.2     1  LIG1        0.0000
     27 C27         4.8727    2.1826   -0.0387 C.3     1  LIG1        0.0000
     28 C28         2.3723    1.4212   -0.0071 C.3     1  LIG1        0.0000
     29 H          -2.6135   -1.5039   -1.3603 H       1  LIG1        0.0000
     30 H           9.1260   -2.3334    4.4559 H       1  LIG1        0.0000
     31 H           7.4956   -2.3926    4.5250 H       1  LIG1        0.0000
     32 H           8.2808   -3.0071    3.2318 H       1  LIG1        0.0000
     33 H           8.2081   -0.2032    3.9173 H       1  LIG1        0.0000
     34 H           8.9933   -0.8177    2.6241 H       1  LIG1        0.0000
     35 H           5.7623   -0.0532    3.9501 H       1  LIG1        0.0000
     36 H           3.7636    0.0699    2.6587 H       1  LIG1        0.0000
     37 H           7.7470   -1.6292    0.6639 H       1  LIG1        0.0000
     38 H           5.8955   -2.3478   -1.3696 H       1  LIG1        0.0000
     39 H           5.7244   -0.7569   -1.6963 H       1  LIG1        0.0000
     40 H           3.5500   -1.4169   -1.9780 H       1  LIG1        0.0000
     41 H           3.6765   -2.5971   -0.8565 H       1  LIG1        0.0000
     42 H          -1.1771   -1.6655    0.4741 H       1  LIG1        0.0000
     43 H          -1.9848   -0.2465    0.5047 H       1  LIG1        0.0000
     44 H          -2.2261    0.1328   -2.9805 H       1  LIG1        0.0000
     45 H          -2.6090    0.8237   -1.5513 H       1  LIG1        0.0000
     46 H          -1.0535    0.7801   -2.0463 H       1  LIG1        0.0000
     47 H          -1.0388   -1.9530   -3.0255 H       1  LIG1        0.0000
     48 H           0.1338   -1.3057   -2.0912 H       1  LIG1        0.0000
     49 H          -0.6141   -2.6811   -1.6268 H       1  LIG1        0.0000
     50 H           5.3625    3.0545   -0.0359 H       1  LIG1        0.0000
     51 H           5.1338    1.6511    0.7671 H       1  LIG1        0.0000
     52 H           5.1070    1.6713   -0.8656 H       1  LIG1        0.0000
@<TRIPOS>UNITY_ATOM_ATTR
16 1
charge 1
24 1
charge -1
@<TRIPOS>BOND
     1     1     2    1
     2     2     3    1
     3     3     4   ar
     4     4     5   ar
     5     5     6   ar
     6     6     7   ar
     7     7     8   ar
     8     8     3   ar
     9     7     9    1
    10     9    10    1
    11    10    11    1
    12    11     6    1
    13    11    12    1
    14    12    13   ar
    15    13    14   ar
    16    14    15    1
    17    15    16    1
    18    16    17    1
    19    16    18    1
    20    14    19   ar
    21    19    20   ar
    22    20    21    1
    23    21    22    1
    24    22    23    1
    25    23    24    1
    26    23    25    2
    27    22    26    2
    28    26    27    1
    29    26    28    1
    30    28    12   ar
    31    28    20   ar
    32    16    29    1
    33     1    30    1
    34     1    31    1
    35     1    32    1
    36     2    33    1
    37     2    34    1
    38     4    35    1
    39     5    36    1
    40     8    37    1
    41     9    38    1
    42     9    39    1
    43    10    40    1
    44    10    41    1
    45    15    42    1
    46    15    43    1
    47    17    44    1
    48    17    45    1
    49    17    46    1
    50    18    47    1
    51    18    48    1
    52    18    49    1
    53    27    50    1
    54    27    51    1
    55    27    52    1
