@<TRIPOS>MOLECULE
*****
 52 55 0 0 0
SMALL
USER_CHARGES

@<TRIPOS>ATOM
      1 C1          8.9152    0.4365   -3.2782 C.3     1  LIG1        0.0000
      2 C2          8.1330   -0.8585   -3.4256 C.3     1  LIG1        0.0000
      3 C3          6.8759   -0.7907   -2.5743 C.3     1  LIG1        0.0000
      4 C4          5.6995   -0.2860   -3.1176 C.3     1  LIG1        0.0000
      5 C5          4.5517   -0.2290   -2.3339 C.3     1  LIG1        0.0000
      6 C6          4.5511   -0.6654   -1.0114 C.3     1  LIG1        0.0000
      7 C7          5.7419   -1.1508   -0.5131 C.3     1  LIG1        0.0000
      8 C8          6.9112   -1.2313   -1.2576 C.3     1  LIG1        0.0000
      9 C9          5.4692   -1.5057    0.9301 C.3     1  LIG1        0.0000
     10 C10         3.9632   -1.6841    0.9617 C.3     1  LIG1        0.0000
     11 N11         3.5495   -0.7176   -0.0500 N.pl3   1  LIG1        0.0000
     12 C12         2.3620    0.0316   -0.0237 C.3     1  LIG1        0.0000
     13 N13         1.2098   -0.6573   -0.0174 N.pl3   1  LIG1        0.0000
     14 C14         0.0214   -0.0336    0.0064 C.3     1  LIG1        0.0000
     15 C15        -1.2982   -0.7849    0.0160 C.3     1  LIG1        0.0000
     16 N16        -1.7036   -1.0455    1.4048 N.4     1  LIG1        1.0000
     17 C17        -0.6740   -1.8551    2.0720 C.3     1  LIG1        0.0000
     18 C18        -1.8612    0.2307    2.1170 C.3     1  LIG1        0.0000
     19 N19        -0.0586    1.2987    0.0251 N.pl3   1  LIG1        0.0000
     20 C20         1.1012    1.9476    0.0180 C.3     1  LIG1        0.0000
     21 S21         1.2013    3.6442    0.0381 S.3     1  LIG1        0.0000
     22 C22         2.9006    3.7220    0.0130 C.2     1  LIG1        0.0000
     23 C23         3.6724    4.9473    0.0140 C.3     1  LIG1        0.0000
     24 O24         3.0897    6.0530    0.0345 O.2     1  LIG1        0.0000
     25 O25         4.8814    4.9009   -0.0049 O.2     1  LIG1       -1.0000
     26 C26         3.3760    2.4424   -0.0109 C.2     1  LIG1        0.0000
     27 C27         4.8727    2.1826   -0.0387 C.3     1  LIG1        0.0000
     28 C28         2.3723    1.4212   -0.0071 C.3     1  LIG1        0.0000
     29 H          -2.5726   -1.5403    1.4111 H       1  LIG1        0.0000
     30 H           9.7423    0.3919   -3.8384 H       1  LIG1        0.0000
     31 H           8.3493    1.2039   -3.5798 H       1  LIG1        0.0000
     32 H           9.1684    0.5657   -2.3195 H       1  LIG1        0.0000
     33 H           7.8797   -0.9876   -4.3843 H       1  LIG1        0.0000
     34 H           8.6989   -1.6258   -3.1240 H       1  LIG1        0.0000
     35 H           5.6789    0.0338   -4.0649 H       1  LIG1        0.0000
     36 H           3.7077    0.1335   -2.7291 H       1  LIG1        0.0000
     37 H           7.7526   -1.5953   -0.8581 H       1  LIG1        0.0000
     38 H           5.7563   -0.7684    1.5415 H       1  LIG1        0.0000
     39 H           5.9364   -2.3520    1.1861 H       1  LIG1        0.0000
     40 H           3.6980   -2.6151    0.7109 H       1  LIG1        0.0000
     41 H           3.5853   -1.4604    1.8601 H       1  LIG1        0.0000
     42 H          -1.9987   -0.2341   -0.4379 H       1  LIG1        0.0000
     43 H          -1.1910   -1.6531   -0.4685 H       1  LIG1        0.0000
     44 H          -0.9497   -2.0325    3.0168 H       1  LIG1        0.0000
     45 H          -0.5668   -2.7233    1.5875 H       1  LIG1        0.0000
     46 H           0.1950   -1.3604    2.0657 H       1  LIG1        0.0000
     47 H          -2.1370    0.0534    3.0617 H       1  LIG1        0.0000
     48 H          -0.9922    0.7255    2.1107 H       1  LIG1        0.0000
     49 H          -2.5617    0.7815    1.6630 H       1  LIG1        0.0000
     50 H           5.3625    3.0545   -0.0359 H       1  LIG1        0.0000
     51 H           5.1338    1.6511    0.7671 H       1  LIG1        0.0000
     52 H           5.1070    1.6713   -0.8656 H       1  LIG1        0.0000
@<TRIPOS>UNITY_ATOM_ATTR
16 1
charge 1
24 1
charge -1
@<TRIPOS>BOND
     1     1     2    1
     2     2     3    1
     3     3     4   ar
     4     4     5   ar
     5     5     6   ar
     6     6     7   ar
     7     7     8   ar
     8     8     3   ar
     9     7     9    1
    10     9    10    1
    11    10    11    1
    12    11     6    1
    13    11    12    1
    14    12    13   ar
    15    13    14   ar
    16    14    15    1
    17    15    16    1
    18    16    17    1
    19    16    18    1
    20    14    19   ar
    21    19    20   ar
    22    20    21    1
    23    21    22    1
    24    22    23    1
    25    23    24    1
    26    23    25    2
    27    22    26    2
    28    26    27    1
    29    26    28    1
    30    28    12   ar
    31    28    20   ar
    32    16    29    1
    33     1    30    1
    34     1    31    1
    35     1    32    1
    36     2    33    1
    37     2    34    1
    38     4    35    1
    39     5    36    1
    40     8    37    1
    41     9    38    1
    42     9    39    1
    43    10    40    1
    44    10    41    1
    45    15    42    1
    46    15    43    1
    47    17    44    1
    48    17    45    1
    49    17    46    1
    50    18    47    1
    51    18    48    1
    52    18    49    1
    53    27    50    1
    54    27    51    1
    55    27    52    1
