@<TRIPOS>MOLECULE

  34   35
SMALL
USER_CHARGES
@<TRIPOS>ATOM
   1 C1           7.0633    -1.1848     0.9292 C.3          1    LIG   0.0000
   2 S2           5.3338    -1.7183     0.9150 S.3          1    LIG   0.0000
   3 C3           4.4706    -0.2087     0.9618 C.ar         1    LIG   0.0000
   4 C4           5.1818     0.9859     0.9971 C.ar         1    LIG   0.0000
   5 C5           4.4829     2.1879     1.0340 C.ar         1    LIG   0.0000
   6 C6           3.0919     2.2062     1.0358 C.ar         1    LIG   0.0000
   7 C7           2.3999     1.0000     1.0000 C.ar         1    LIG   0.0000
   8 N8           1.0000     1.0000     1.0000 N.pl3        1    LIG   0.0000
   9 C9           0.2650    -0.2725     0.9615 C.3          1    LIG   0.0000
  10 C10          0.2650     2.2725     1.0385 C.3          1    LIG   0.0000
  11 C11         -0.2039     2.5440     2.4588 C.3          1    LIG   0.0000
  12 C12          0.4665     3.7660     3.0129 C.3          1    LIG   0.0000
  13 C13         -0.9641     3.8345     2.5648 C.3          1    LIG   0.0000
  14 C14         -1.9165     3.8183     3.7461 C.3          1    LIG   0.0000
  15 C15          3.0798    -0.2131     0.9633 C.ar         1    LIG   0.0000
  16 H           -0.4295     1.7808     3.0642 H            1    LIG   0.0000
  17 H           -1.2041     4.3419     1.7372 H            1    LIG   0.0000
  18 H            7.6598    -1.9871     0.9041 H            1    LIG   0.0000
  19 H            7.2419    -0.6115     0.1295 H            1    LIG   0.0000
  20 H            7.2438    -0.6612     1.7618 H            1    LIG   0.0000
  21 H            6.1818     0.9808     0.9961 H            1    LIG   0.0000
  22 H            4.9873     3.0510     1.0595 H            1    LIG   0.0000
  23 H            2.5964     3.0743     1.0624 H            1    LIG   0.0000
  24 H           -0.7182    -0.0898     0.9670 H            1    LIG   0.0000
  25 H            0.5066    -0.7719     0.1295 H            1    LIG   0.0000
  26 H            0.5066    -0.8213     1.7618 H            1    LIG   0.0000
  27 H           -0.5271     2.2184     0.4306 H            1    LIG   0.0000
  28 H            0.8656     3.0135     0.7383 H            1    LIG   0.0000
  29 H            1.1785     4.2285     2.4846 H            1    LIG   0.0000
  30 H            0.6883     3.8163     3.9868 H            1    LIG   0.0000
  31 H           -2.4072     4.6885     3.7906 H            1    LIG   0.0000
  32 H           -2.5720     3.0713     3.6355 H            1    LIG   0.0000
  33 H           -1.3979     3.6845     4.5905 H            1    LIG   0.0000
  34 H            2.5755    -1.0763     0.9383 H            1    LIG   0.0000
@<TRIPOS>BOND
   1        1        2 1
   2        2        3 1
   3        3        4 ar
   4        4        5 ar
   5        5        6 ar
   6        6        7 ar
   7        7        8 1
   8        8        9 1
   9        8       10 1
  10       10       11 1
  11       11       12 1
  12       12       13 1
  13       13       11 1
  14       13       14 1
  15        7       15 ar
  16       15        3 ar
  17       11       16 1
  18       13       17 1
  19        1       18 1
  20        1       19 1
  21        1       20 1
  22        4       21 1
  23        5       22 1
  24        6       23 1
  25        9       24 1
  26        9       25 1
  27        9       26 1
  28       10       27 1
  29       10       28 1
  30       12       29 1
  31       12       30 1
  32       14       31 1
  33       14       32 1
  34       14       33 1
  35       15       34 1

@<TRIPOS>MOLECULE

  34   35
SMALL
USER_CHARGES
@<TRIPOS>ATOM
   1 C1           7.0633    -1.1848     0.9292 C.3          1    LIG   0.0000
   2 S2           5.3338    -1.7183     0.9150 S.3          1    LIG   0.0000
   3 C3           4.4706    -0.2087     0.9618 C.ar         1    LIG   0.0000
   4 C4           5.1818     0.9859     0.9971 C.ar         1    LIG   0.0000
   5 C5           4.4829     2.1879     1.0340 C.ar         1    LIG   0.0000
   6 C6           3.0919     2.2062     1.0358 C.ar         1    LIG   0.0000
   7 C7           2.3999     1.0000     1.0000 C.ar         1    LIG   0.0000
   8 N8           1.0000     1.0000     1.0000 N.pl3        1    LIG   0.0000
   9 C9           0.2650    -0.2725     0.9615 C.3          1    LIG   0.0000
  10 C10          0.2650     2.2725     1.0385 C.3          1    LIG   0.0000
  11 C11         -0.2039     2.6294    -0.3628 C.3          1    LIG   0.0000
  12 C12         -1.7018     2.6180    -0.4386 C.3          1    LIG   0.0000
  13 C13         -0.9641     3.9240    -0.3906 C.3          1    LIG   0.0000
  14 C14         -0.8972     4.5736    -1.7603 C.3          1    LIG   0.0000
  15 C15          3.0798    -0.2131     0.9633 C.ar         1    LIG   0.0000
  16 H            0.3380     2.3518    -1.1560 H            1    LIG   0.0000
  17 H           -1.0103     4.4934     0.4301 H            1    LIG   0.0000
  18 H            7.6598    -1.9871     0.9041 H            1    LIG   0.0000
  19 H            7.2419    -0.6115     0.1295 H            1    LIG   0.0000
  20 H            7.2438    -0.6612     1.7618 H            1    LIG   0.0000
  21 H            6.1818     0.9808     0.9961 H            1    LIG   0.0000
  22 H            4.9873     3.0510     1.0595 H            1    LIG   0.0000
  23 H            2.5964     3.0743     1.0624 H            1    LIG   0.0000
  24 H           -0.7182    -0.0898     0.9670 H            1    LIG   0.0000
  25 H            0.5066    -0.7719     0.1295 H            1    LIG   0.0000
  26 H            0.5066    -0.8213     1.7618 H            1    LIG   0.0000
  27 H            0.8656     2.9940     1.3829 H            1    LIG   0.0000
  28 H           -0.5271     2.1817     1.6421 H            1    LIG   0.0000
  29 H           -2.2400     2.3186     0.3493 H            1    LIG   0.0000
  30 H           -2.1575     2.3319    -1.2816 H            1    LIG   0.0000
  31 H           -1.4112     5.4314    -1.7479 H            1    LIG   0.0000
  32 H            0.0569     4.7601    -1.9946 H            1    LIG   0.0000
  33 H           -1.2934     3.9575    -2.4412 H            1    LIG   0.0000
  34 H            2.5755    -1.0763     0.9383 H            1    LIG   0.0000
@<TRIPOS>BOND
   1        1        2 1
   2        2        3 1
   3        3        4 ar
   4        4        5 ar
   5        5        6 ar
   6        6        7 ar
   7        7        8 1
   8        8        9 1
   9        8       10 1
  10       10       11 1
  11       11       12 1
  12       12       13 1
  13       13       11 1
  14       13       14 1
  15        7       15 ar
  16       15        3 ar
  17       11       16 1
  18       13       17 1
  19        1       18 1
  20        1       19 1
  21        1       20 1
  22        4       21 1
  23        5       22 1
  24        6       23 1
  25        9       24 1
  26        9       25 1
  27        9       26 1
  28       10       27 1
  29       10       28 1
  30       12       29 1
  31       12       30 1
  32       14       31 1
  33       14       32 1
  34       14       33 1
  35       15       34 1

@<TRIPOS>MOLECULE

  34   35
SMALL
USER_CHARGES
@<TRIPOS>ATOM
   1 C1           7.0633     1.0708    -1.1848 C.3          1    LIG   0.0000
   2 S2           5.3338     1.0850    -1.7183 S.3          1    LIG   0.0000
   3 C3           4.4706     1.0382    -0.2087 C.ar         1    LIG   0.0000
   4 C4           5.1818     1.0029     0.9859 C.ar         1    LIG   0.0000
   5 C5           4.4829     0.9660     2.1879 C.ar         1    LIG   0.0000
   6 C6           3.0919     0.9642     2.2062 C.ar         1    LIG   0.0000
   7 C7           2.3999     1.0000     1.0000 C.ar         1    LIG   0.0000
   8 N8           1.0000     1.0000     1.0000 N.pl3        1    LIG   0.0000
   9 C9           0.2650    -0.2725     0.9615 C.3          1    LIG   0.0000
  10 C10          0.2650     2.2725     1.0385 C.3          1    LIG   0.0000
  11 C11         -0.2039     2.6294    -0.3628 C.3          1    LIG   0.0000
  12 C12         -1.7018     2.6180    -0.4386 C.3          1    LIG   0.0000
  13 C13         -0.9641     3.9240    -0.3906 C.3          1    LIG   0.0000
  14 C14         -0.8972     4.5736    -1.7603 C.3          1    LIG   0.0000
  15 C15          3.0798     1.0367    -0.2131 C.ar         1    LIG   0.0000
  16 H            0.3380     2.3518    -1.1560 H            1    LIG   0.0000
  17 H           -1.0103     4.4934     0.4301 H            1    LIG   0.0000
  18 H            7.6598     1.0959    -1.9871 H            1    LIG   0.0000
  19 H            7.2419     1.8705    -0.6115 H            1    LIG   0.0000
  20 H            7.2438     0.2382    -0.6612 H            1    LIG   0.0000
  21 H            6.1818     1.0039     0.9808 H            1    LIG   0.0000
  22 H            4.9873     0.9405     3.0510 H            1    LIG   0.0000
  23 H            2.5964     0.9376     3.0743 H            1    LIG   0.0000
  24 H           -0.7182    -0.0898     0.9670 H            1    LIG   0.0000
  25 H            0.5066    -0.7719     0.1295 H            1    LIG   0.0000
  26 H            0.5066    -0.8213     1.7618 H            1    LIG   0.0000
  27 H            0.8656     2.9940     1.3829 H            1    LIG   0.0000
  28 H           -0.5271     2.1817     1.6421 H            1    LIG   0.0000
  29 H           -2.2400     2.3186     0.3493 H            1    LIG   0.0000
  30 H           -2.1575     2.3319    -1.2816 H            1    LIG   0.0000
  31 H           -1.4112     5.4314    -1.7479 H            1    LIG   0.0000
  32 H            0.0569     4.7601    -1.9946 H            1    LIG   0.0000
  33 H           -1.2934     3.9575    -2.4412 H            1    LIG   0.0000
  34 H            2.5755     1.0617    -1.0763 H            1    LIG   0.0000
@<TRIPOS>BOND
   1        1        2 1
   2        2        3 1
   3        3        4 ar
   4        4        5 ar
   5        5        6 ar
   6        6        7 ar
   7        7        8 1
   8        8        9 1
   9        8       10 1
  10       10       11 1
  11       11       12 1
  12       12       13 1
  13       13       11 1
  14       13       14 1
  15        7       15 ar
  16       15        3 ar
  17       11       16 1
  18       13       17 1
  19        1       18 1
  20        1       19 1
  21        1       20 1
  22        4       21 1
  23        5       22 1
  24        6       23 1
  25        9       24 1
  26        9       25 1
  27        9       26 1
  28       10       27 1
  29       10       28 1
  30       12       29 1
  31       12       30 1
  32       14       31 1
  33       14       32 1
  34       14       33 1
  35       15       34 1

@<TRIPOS>MOLECULE

  34   35
SMALL
USER_CHARGES
@<TRIPOS>ATOM
   1 C1           5.5317    -0.6699    -2.1146 C.3          1    LIG   0.0000
   2 S2           5.3338     1.0850    -1.7183 S.3          1    LIG   0.0000
   3 C3           4.4706     1.0382    -0.2087 C.ar         1    LIG   0.0000
   4 C4           5.1818     1.0029     0.9859 C.ar         1    LIG   0.0000
   5 C5           4.4829     0.9660     2.1879 C.ar         1    LIG   0.0000
   6 C6           3.0919     0.9642     2.2062 C.ar         1    LIG   0.0000
   7 C7           2.3999     1.0000     1.0000 C.ar         1    LIG   0.0000
   8 N8           1.0000     1.0000     1.0000 N.pl3        1    LIG   0.0000
   9 C9           0.2650    -0.2725     0.9615 C.3          1    LIG   0.0000
  10 C10          0.2650     2.2725     1.0385 C.3          1    LIG   0.0000
  11 C11         -0.2039     2.5440     2.4588 C.3          1    LIG   0.0000
  12 C12          0.4665     3.7660     3.0129 C.3          1    LIG   0.0000
  13 C13         -0.9641     3.8345     2.5648 C.3          1    LIG   0.0000
  14 C14         -1.9165     3.8183     3.7461 C.3          1    LIG   0.0000
  15 C15          3.0798     1.0367    -0.2131 C.ar         1    LIG   0.0000
  16 H           -0.4295     1.7808     3.0642 H            1    LIG   0.0000
  17 H           -1.2041     4.3419     1.7372 H            1    LIG   0.0000
  18 H            6.0245    -0.7627    -2.9798 H            1    LIG   0.0000
  19 H            6.0489    -1.1198    -1.3866 H            1    LIG   0.0000
  20 H            4.6311    -1.0968    -2.1965 H            1    LIG   0.0000
  21 H            6.1818     1.0039     0.9808 H            1    LIG   0.0000
  22 H            4.9873     0.9405     3.0510 H            1    LIG   0.0000
  23 H            2.5964     0.9376     3.0743 H            1    LIG   0.0000
  24 H           -0.7182    -0.0898     0.9670 H            1    LIG   0.0000
  25 H            0.5066    -0.7719     0.1295 H            1    LIG   0.0000
  26 H            0.5066    -0.8213     1.7618 H            1    LIG   0.0000
  27 H           -0.5271     2.2184     0.4306 H            1    LIG   0.0000
  28 H            0.8656     3.0135     0.7383 H            1    LIG   0.0000
  29 H            1.1785     4.2285     2.4846 H            1    LIG   0.0000
  30 H            0.6883     3.8163     3.9868 H            1    LIG   0.0000
  31 H           -2.4072     4.6885     3.7906 H            1    LIG   0.0000
  32 H           -2.5720     3.0713     3.6355 H            1    LIG   0.0000
  33 H           -1.3979     3.6845     4.5905 H            1    LIG   0.0000
  34 H            2.5755     1.0617    -1.0763 H            1    LIG   0.0000
@<TRIPOS>BOND
   1        1        2 1
   2        2        3 1
   3        3        4 ar
   4        4        5 ar
   5        5        6 ar
   6        6        7 ar
   7        7        8 1
   8        8        9 1
   9        8       10 1
  10       10       11 1
  11       11       12 1
  12       12       13 1
  13       13       11 1
  14       13       14 1
  15        7       15 ar
  16       15        3 ar
  17       11       16 1
  18       13       17 1
  19        1       18 1
  20        1       19 1
  21        1       20 1
  22        4       21 1
  23        5       22 1
  24        6       23 1
  25        9       24 1
  26        9       25 1
  27        9       26 1
  28       10       27 1
  29       10       28 1
  30       12       29 1
  31       12       30 1
  32       14       31 1
  33       14       32 1
  34       14       33 1
  35       15       34 1

@<TRIPOS>MOLECULE

  34   35
SMALL
USER_CHARGES
@<TRIPOS>ATOM
   1 C1           7.0633     0.9292     3.1848 C.3          1    LIG   0.0000
   2 S2           5.3338     0.9150     3.7183 S.3          1    LIG   0.0000
   3 C3           4.4706     0.9618     2.2087 C.ar         1    LIG   0.0000
   4 C4           5.1818     0.9971     1.0141 C.ar         1    LIG   0.0000
   5 C5           4.4829     1.0340    -0.1879 C.ar         1    LIG   0.0000
   6 C6           3.0919     1.0358    -0.2062 C.ar         1    LIG   0.0000
   7 C7           2.3999     1.0000     1.0000 C.ar         1    LIG   0.0000
   8 N8           1.0000     1.0000     1.0000 N.pl3        1    LIG   0.0000
   9 C9           0.2650    -0.2725     0.9615 C.3          1    LIG   0.0000
  10 C10          0.2650     2.2725     1.0385 C.3          1    LIG   0.0000
  11 C11         -0.2039     2.5440     2.4588 C.3          1    LIG   0.0000
  12 C12          0.4665     3.7660     3.0129 C.3          1    LIG   0.0000
  13 C13         -0.9641     3.8345     2.5648 C.3          1    LIG   0.0000
  14 C14         -1.9165     3.8183     3.7461 C.3          1    LIG   0.0000
  15 C15          3.0798     0.9633     2.2131 C.ar         1    LIG   0.0000
  16 H           -0.4295     1.7808     3.0642 H            1    LIG   0.0000
  17 H           -1.2041     4.3419     1.7372 H            1    LIG   0.0000
  18 H            7.6598     0.9041     3.9871 H            1    LIG   0.0000
  19 H            7.2419     0.1295     2.6115 H            1    LIG   0.0000
  20 H            7.2438     1.7618     2.6612 H            1    LIG   0.0000
  21 H            6.1818     0.9961     1.0192 H            1    LIG   0.0000
  22 H            4.9873     1.0595    -1.0510 H            1    LIG   0.0000
  23 H            2.5964     1.0624    -1.0743 H            1    LIG   0.0000
  24 H           -0.7182    -0.0898     0.9670 H            1    LIG   0.0000
  25 H            0.5066    -0.7719     0.1295 H            1    LIG   0.0000
  26 H            0.5066    -0.8213     1.7618 H            1    LIG   0.0000
  27 H           -0.5271     2.2184     0.4306 H            1    LIG   0.0000
  28 H            0.8656     3.0135     0.7383 H            1    LIG   0.0000
  29 H            1.1785     4.2285     2.4846 H            1    LIG   0.0000
  30 H            0.6883     3.8163     3.9868 H            1    LIG   0.0000
  31 H           -2.4072     4.6885     3.7906 H            1    LIG   0.0000
  32 H           -2.5720     3.0713     3.6355 H            1    LIG   0.0000
  33 H           -1.3979     3.6845     4.5905 H            1    LIG   0.0000
  34 H            2.5755     0.9383     3.0763 H            1    LIG   0.0000
@<TRIPOS>BOND
   1        1        2 1
   2        2        3 1
   3        3        4 ar
   4        4        5 ar
   5        5        6 ar
   6        6        7 ar
   7        7        8 1
   8        8        9 1
   9        8       10 1
  10       10       11 1
  11       11       12 1
  12       12       13 1
  13       13       11 1
  14       13       14 1
  15        7       15 ar
  16       15        3 ar
  17       11       16 1
  18       13       17 1
  19        1       18 1
  20        1       19 1
  21        1       20 1
  22        4       21 1
  23        5       22 1
  24        6       23 1
  25        9       24 1
  26        9       25 1
  27        9       26 1
  28       10       27 1
  29       10       28 1
  30       12       29 1
  31       12       30 1
  32       14       31 1
  33       14       32 1
  34       14       33 1
  35       15       34 1

@<TRIPOS>MOLECULE

  34   35
SMALL
USER_CHARGES
@<TRIPOS>ATOM
   1 C1           7.0633     0.9292     3.1848 C.3          1    LIG   0.0000
   2 S2           5.3338     0.9150     3.7183 S.3          1    LIG   0.0000
   3 C3           4.4706     0.9618     2.2087 C.ar         1    LIG   0.0000
   4 C4           5.1818     0.9971     1.0141 C.ar         1    LIG   0.0000
   5 C5           4.4829     1.0340    -0.1879 C.ar         1    LIG   0.0000
   6 C6           3.0919     1.0358    -0.2062 C.ar         1    LIG   0.0000
   7 C7           2.3999     1.0000     1.0000 C.ar         1    LIG   0.0000
   8 N8           1.0000     1.0000     1.0000 N.pl3        1    LIG   0.0000
   9 C9           0.2650    -0.2725     0.9615 C.3          1    LIG   0.0000
  10 C10          0.2650     2.2725     1.0385 C.3          1    LIG   0.0000
  11 C11          1.2340     3.4240     0.8243 C.3          1    LIG   0.0000
  12 C12          1.1371     4.4131     1.9477 C.3          1    LIG   0.0000
  13 C13          2.3006     3.4676     1.8803 C.3          1    LIG   0.0000
  14 C14          3.5508     4.1621     1.3733 C.3          1    LIG   0.0000
  15 C15          3.0798     0.9633     2.2131 C.ar         1    LIG   0.0000
  16 H            1.4363     3.7400    -0.1026 H            1    LIG   0.0000
  17 H            2.3774     2.7227     2.5431 H            1    LIG   0.0000
  18 H            7.6598     0.9041     3.9871 H            1    LIG   0.0000
  19 H            7.2419     0.1295     2.6115 H            1    LIG   0.0000
  20 H            7.2438     1.7618     2.6612 H            1    LIG   0.0000
  21 H            6.1818     0.9961     1.0192 H            1    LIG   0.0000
  22 H            4.9873     1.0595    -1.0510 H            1    LIG   0.0000
  23 H            2.5964     1.0624    -1.0743 H            1    LIG   0.0000
  24 H           -0.7182    -0.0898     0.9670 H            1    LIG   0.0000
  25 H            0.5066    -0.7719     0.1295 H            1    LIG   0.0000
  26 H            0.5066    -0.8213     1.7618 H            1    LIG   0.0000
  27 H           -0.1809     2.3731     1.9279 H            1    LIG   0.0000
  28 H           -0.4265     2.2800     0.3162 H            1    LIG   0.0000
  29 H            0.4404     4.2987     2.6558 H            1    LIG   0.0000
  30 H            1.2739     5.3875     1.7690 H            1    LIG   0.0000
  31 H            4.2412     4.1757     2.0966 H            1    LIG   0.0000
  32 H            3.9082     3.6684     0.5805 H            1    LIG   0.0000
  33 H            3.3269     5.1001     1.1086 H            1    LIG   0.0000
  34 H            2.5755     0.9383     3.0763 H            1    LIG   0.0000
@<TRIPOS>BOND
   1        1        2 1
   2        2        3 1
   3        3        4 ar
   4        4        5 ar
   5        5        6 ar
   6        6        7 ar
   7        7        8 1
   8        8        9 1
   9        8       10 1
  10       10       11 1
  11       11       12 1
  12       12       13 1
  13       13       11 1
  14       13       14 1
  15        7       15 ar
  16       15        3 ar
  17       11       16 1
  18       13       17 1
  19        1       18 1
  20        1       19 1
  21        1       20 1
  22        4       21 1
  23        5       22 1
  24        6       23 1
  25        9       24 1
  26        9       25 1
  27        9       26 1
  28       10       27 1
  29       10       28 1
  30       12       29 1
  31       12       30 1
  32       14       31 1
  33       14       32 1
  34       14       33 1
  35       15       34 1

@<TRIPOS>MOLECULE

  34   35
SMALL
USER_CHARGES
@<TRIPOS>ATOM
   1 C1           3.9961     0.8794     4.9371 C.3          1    LIG   0.0000
   2 S2           5.3338     0.9150     3.7183 S.3          1    LIG   0.0000
   3 C3           4.4706     0.9618     2.2087 C.ar         1    LIG   0.0000
   4 C4           5.1818     0.9971     1.0141 C.ar         1    LIG   0.0000
   5 C5           4.4829     1.0340    -0.1879 C.ar         1    LIG   0.0000
   6 C6           3.0919     1.0358    -0.2062 C.ar         1    LIG   0.0000
   7 C7           2.3999     1.0000     1.0000 C.ar         1    LIG   0.0000
   8 N8           1.0000     1.0000     1.0000 N.pl3        1    LIG   0.0000
   9 C9           0.2650    -0.2725     0.9615 C.3          1    LIG   0.0000
  10 C10          0.2650     2.2725     1.0385 C.3          1    LIG   0.0000
  11 C11         -0.2039     2.5440     2.4588 C.3          1    LIG   0.0000
  12 C12         -1.6870     2.7654     2.4933 C.3          1    LIG   0.0000
  13 C13         -1.1126     1.4632     2.9692 C.3          1    LIG   0.0000
  14 C14         -1.0857     1.3899     4.4847 C.3          1    LIG   0.0000
  15 C15          3.0798     0.9633     2.2131 C.ar         1    LIG   0.0000
  16 H            0.3893     3.0385     3.0941 H            1    LIG   0.0000
  17 H           -1.2496     0.6311     2.4317 H            1    LIG   0.0000
  18 H            4.3849     0.8510     5.8580 H            1    LIG   0.0000
  19 H            3.4331     1.7000     4.8381 H            1    LIG   0.0000
  20 H            3.4313     0.0677     4.7885 H            1    LIG   0.0000
  21 H            6.1818     0.9961     1.0192 H            1    LIG   0.0000
  22 H            4.9873     1.0595    -1.0510 H            1    LIG   0.0000
  23 H            2.5964     1.0624    -1.0743 H            1    LIG   0.0000
  24 H           -0.7182    -0.0898     0.9670 H            1    LIG   0.0000
  25 H            0.5066    -0.7719     0.1295 H            1    LIG   0.0000
  26 H            0.5066    -0.8213     1.7618 H            1    LIG   0.0000
  27 H           -0.5271     2.2184     0.4306 H            1    LIG   0.0000
  28 H            0.8656     3.0135     0.7383 H            1    LIG   0.0000
  29 H           -2.2072     2.8001     1.6400 H            1    LIG   0.0000
  30 H           -2.0813     3.4077     3.1506 H            1    LIG   0.0000
  31 H           -1.6988     0.6630     4.7942 H            1    LIG   0.0000
  32 H           -0.1546     1.1942     4.7925 H            1    LIG   0.0000
  33 H           -1.3860     2.2642     4.8660 H            1    LIG   0.0000
  34 H            2.5755     0.9383     3.0763 H            1    LIG   0.0000
@<TRIPOS>BOND
   1        1        2 1
   2        2        3 1
   3        3        4 ar
   4        4        5 ar
   5        5        6 ar
   6        6        7 ar
   7        7        8 1
   8        8        9 1
   9        8       10 1
  10       10       11 1
  11       11       12 1
  12       12       13 1
  13       13       11 1
  14       13       14 1
  15        7       15 ar
  16       15        3 ar
  17       11       16 1
  18       13       17 1
  19        1       18 1
  20        1       19 1
  21        1       20 1
  22        4       21 1
  23        5       22 1
  24        6       23 1
  25        9       24 1
  26        9       25 1
  27        9       26 1
  28       10       27 1
  29       10       28 1
  30       12       29 1
  31       12       30 1
  32       14       31 1
  33       14       32 1
  34       14       33 1
  35       15       34 1

@<TRIPOS>MOLECULE

  34   35
SMALL
USER_CHARGES
@<TRIPOS>ATOM
   1 C1           3.9961     0.8794     4.9371 C.3          1    LIG   0.0000
   2 S2           5.3338     0.9150     3.7183 S.3          1    LIG   0.0000
   3 C3           4.4706     0.9618     2.2087 C.ar         1    LIG   0.0000
   4 C4           5.1818     0.9971     1.0141 C.ar         1    LIG   0.0000
   5 C5           4.4829     1.0340    -0.1879 C.ar         1    LIG   0.0000
   6 C6           3.0919     1.0358    -0.2062 C.ar         1    LIG   0.0000
   7 C7           2.3999     1.0000     1.0000 C.ar         1    LIG   0.0000
   8 N8           1.0000     1.0000     1.0000 N.pl3        1    LIG   0.0000
   9 C9           0.2650    -0.2725     0.9615 C.3          1    LIG   0.0000
  10 C10          0.2650     2.2725     1.0385 C.3          1    LIG   0.0000
  11 C11         -0.2039     2.6294    -0.3628 C.3          1    LIG   0.0000
  12 C12          0.2756     3.9971    -0.7490 C.3          1    LIG   0.0000
  13 C13          0.9430     2.7803    -1.3201 C.3          1    LIG   0.0000
  14 C14          0.5045     2.5273    -2.7506 C.3          1    LIG   0.0000
  15 C15          3.0798     0.9633     2.2131 C.ar         1    LIG   0.0000
  16 H           -1.0886     2.2994    -0.6921 H            1    LIG   0.0000
  17 H            1.8692     2.5373    -1.0316 H            1    LIG   0.0000
  18 H            4.3849     0.8510     5.8580 H            1    LIG   0.0000
  19 H            3.4331     1.7000     4.8381 H            1    LIG   0.0000
  20 H            3.4313     0.0677     4.7885 H            1    LIG   0.0000
  21 H            6.1818     0.9961     1.0192 H            1    LIG   0.0000
  22 H            4.9873     1.0595    -1.0510 H            1    LIG   0.0000
  23 H            2.5964     1.0624    -1.0743 H            1    LIG   0.0000
  24 H           -0.7182    -0.0898     0.9670 H            1    LIG   0.0000
  25 H            0.5066    -0.7719     0.1295 H            1    LIG   0.0000
  26 H            0.5066    -0.8213     1.7618 H            1    LIG   0.0000
  27 H            0.8656     2.9940     1.3829 H            1    LIG   0.0000
  28 H           -0.5271     2.1817     1.6421 H            1    LIG   0.0000
  29 H            0.7577     4.5648    -0.0817 H            1    LIG   0.0000
  30 H           -0.2898     4.5782    -1.3344 H            1    LIG   0.0000
  31 H            1.2875     2.6348    -3.3632 H            1    LIG   0.0000
  32 H            0.1446     1.5976    -2.8295 H            1    LIG   0.0000
  33 H           -0.2077     3.1828    -3.0018 H            1    LIG   0.0000
  34 H            2.5755     0.9383     3.0763 H            1    LIG   0.0000
@<TRIPOS>BOND
   1        1        2 1
   2        2        3 1
   3        3        4 ar
   4        4        5 ar
   5        5        6 ar
   6        6        7 ar
   7        7        8 1
   8        8        9 1
   9        8       10 1
  10       10       11 1
  11       11       12 1
  12       12       13 1
  13       13       11 1
  14       13       14 1
  15        7       15 ar
  16       15        3 ar
  17       11       16 1
  18       13       17 1
  19        1       18 1
  20        1       19 1
  21        1       20 1
  22        4       21 1
  23        5       22 1
  24        6       23 1
  25        9       24 1
  26        9       25 1
  27        9       26 1
  28       10       27 1
  29       10       28 1
  30       12       29 1
  31       12       30 1
  32       14       31 1
  33       14       32 1
  34       14       33 1
  35       15       34 1

@<TRIPOS>MOLECULE

  34   35
SMALL
USER_CHARGES
@<TRIPOS>ATOM
   1 C1           7.0633     3.1848     1.0708 C.3          1    LIG   0.0000
   2 S2           5.3338     3.7183     1.0850 S.3          1    LIG   0.0000
   3 C3           4.4706     2.2087     1.0382 C.ar         1    LIG   0.0000
   4 C4           5.1818     1.0141     1.0029 C.ar         1    LIG   0.0000
   5 C5           4.4829    -0.1879     0.9660 C.ar         1    LIG   0.0000
   6 C6           3.0919    -0.2062     0.9642 C.ar         1    LIG   0.0000
   7 C7           2.3999     1.0000     1.0000 C.ar         1    LIG   0.0000
   8 N8           1.0000     1.0000     1.0000 N.pl3        1    LIG   0.0000
   9 C9           0.2650    -0.2725     0.9615 C.3          1    LIG   0.0000
  10 C10          0.2650     2.2725     1.0385 C.3          1    LIG   0.0000
  11 C11         -0.2039     2.6294    -0.3628 C.3          1    LIG   0.0000
  12 C12          0.2756     3.9971    -0.7490 C.3          1    LIG   0.0000
  13 C13          0.9430     2.7803    -1.3201 C.3          1    LIG   0.0000
  14 C14          0.5045     2.5273    -2.7506 C.3          1    LIG   0.0000
  15 C15          3.0798     2.2131     1.0367 C.ar         1    LIG   0.0000
  16 H           -1.0886     2.2994    -0.6921 H            1    LIG   0.0000
  17 H            1.8692     2.5373    -1.0316 H            1    LIG   0.0000
  18 H            7.6598     3.9871     1.0959 H            1    LIG   0.0000
  19 H            7.2419     2.6115     1.8705 H            1    LIG   0.0000
  20 H            7.2438     2.6612     0.2382 H            1    LIG   0.0000
  21 H            6.1818     1.0192     1.0039 H            1    LIG   0.0000
  22 H            4.9873    -1.0510     0.9405 H            1    LIG   0.0000
  23 H            2.5964    -1.0743     0.9376 H            1    LIG   0.0000
  24 H           -0.7182    -0.0898     0.9670 H            1    LIG   0.0000
  25 H            0.5066    -0.7719     0.1295 H            1    LIG   0.0000
  26 H            0.5066    -0.8213     1.7618 H            1    LIG   0.0000
  27 H            0.8656     2.9940     1.3829 H            1    LIG   0.0000
  28 H           -0.5271     2.1817     1.6421 H            1    LIG   0.0000
  29 H            0.7577     4.5648    -0.0817 H            1    LIG   0.0000
  30 H           -0.2898     4.5782    -1.3344 H            1    LIG   0.0000
  31 H            1.2875     2.6348    -3.3632 H            1    LIG   0.0000
  32 H            0.1446     1.5976    -2.8295 H            1    LIG   0.0000
  33 H           -0.2077     3.1828    -3.0018 H            1    LIG   0.0000
  34 H            2.5755     3.0763     1.0617 H            1    LIG   0.0000
@<TRIPOS>BOND
   1        1        2 1
   2        2        3 1
   3        3        4 ar
   4        4        5 ar
   5        5        6 ar
   6        6        7 ar
   7        7        8 1
   8        8        9 1
   9        8       10 1
  10       10       11 1
  11       11       12 1
  12       12       13 1
  13       13       11 1
  14       13       14 1
  15        7       15 ar
  16       15        3 ar
  17       11       16 1
  18       13       17 1
  19        1       18 1
  20        1       19 1
  21        1       20 1
  22        4       21 1
  23        5       22 1
  24        6       23 1
  25        9       24 1
  26        9       25 1
  27        9       26 1
  28       10       27 1
  29       10       28 1
  30       12       29 1
  31       12       30 1
  32       14       31 1
  33       14       32 1
  34       14       33 1
  35       15       34 1

@<TRIPOS>MOLECULE

  34   35
SMALL
USER_CHARGES
@<TRIPOS>ATOM
   1 C1           3.9961     4.9371     1.1206 C.3          1    LIG   0.0000
   2 S2           5.3338     3.7183     1.0850 S.3          1    LIG   0.0000
   3 C3           4.4706     2.2087     1.0382 C.ar         1    LIG   0.0000
   4 C4           5.1818     1.0141     1.0029 C.ar         1    LIG   0.0000
   5 C5           4.4829    -0.1879     0.9660 C.ar         1    LIG   0.0000
   6 C6           3.0919    -0.2062     0.9642 C.ar         1    LIG   0.0000
   7 C7           2.3999     1.0000     1.0000 C.ar         1    LIG   0.0000
   8 N8           1.0000     1.0000     1.0000 N.pl3        1    LIG   0.0000
   9 C9           0.2650    -0.2725     0.9615 C.3          1    LIG   0.0000
  10 C10          0.2650     2.2725     1.0385 C.3          1    LIG   0.0000
  11 C11         -0.2039     2.5440     2.4588 C.3          1    LIG   0.0000
  12 C12          0.4665     3.7660     3.0129 C.3          1    LIG   0.0000
  13 C13         -0.9641     3.8345     2.5648 C.3          1    LIG   0.0000
  14 C14         -1.9165     3.8183     3.7461 C.3          1    LIG   0.0000
  15 C15          3.0798     2.2131     1.0367 C.ar         1    LIG   0.0000
  16 H           -0.4295     1.7808     3.0642 H            1    LIG   0.0000
  17 H           -1.2041     4.3419     1.7372 H            1    LIG   0.0000
  18 H            4.3849     5.8580     1.1490 H            1    LIG   0.0000
  19 H            3.4331     4.8381     0.3000 H            1    LIG   0.0000
  20 H            3.4313     4.7885     1.9323 H            1    LIG   0.0000
  21 H            6.1818     1.0192     1.0039 H            1    LIG   0.0000
  22 H            4.9873    -1.0510     0.9405 H            1    LIG   0.0000
  23 H            2.5964    -1.0743     0.9376 H            1    LIG   0.0000
  24 H           -0.7182    -0.0898     0.9670 H            1    LIG   0.0000
  25 H            0.5066    -0.7719     0.1295 H            1    LIG   0.0000
  26 H            0.5066    -0.8213     1.7618 H            1    LIG   0.0000
  27 H           -0.5271     2.2184     0.4306 H            1    LIG   0.0000
  28 H            0.8656     3.0135     0.7383 H            1    LIG   0.0000
  29 H            1.1785     4.2285     2.4846 H            1    LIG   0.0000
  30 H            0.6883     3.8163     3.9868 H            1    LIG   0.0000
  31 H           -2.4072     4.6885     3.7906 H            1    LIG   0.0000
  32 H           -2.5720     3.0713     3.6355 H            1    LIG   0.0000
  33 H           -1.3979     3.6845     4.5905 H            1    LIG   0.0000
  34 H            2.5755     3.0763     1.0617 H            1    LIG   0.0000
@<TRIPOS>BOND
   1        1        2 1
   2        2        3 1
   3        3        4 ar
   4        4        5 ar
   5        5        6 ar
   6        6        7 ar
   7        7        8 1
   8        8        9 1
   9        8       10 1
  10       10       11 1
  11       11       12 1
  12       12       13 1
  13       13       11 1
  14       13       14 1
  15        7       15 ar
  16       15        3 ar
  17       11       16 1
  18       13       17 1
  19        1       18 1
  20        1       19 1
  21        1       20 1
  22        4       21 1
  23        5       22 1
  24        6       23 1
  25        9       24 1
  26        9       25 1
  27        9       26 1
  28       10       27 1
  29       10       28 1
  30       12       29 1
  31       12       30 1
  32       14       31 1
  33       14       32 1
  34       14       33 1
  35       15       34 1

@<TRIPOS>MOLECULE

  34   35
SMALL
USER_CHARGES
@<TRIPOS>ATOM
   1 C1           3.9961     4.9371     1.1206 C.3          1    LIG   0.0000
   2 S2           5.3338     3.7183     1.0850 S.3          1    LIG   0.0000
   3 C3           4.4706     2.2087     1.0382 C.ar         1    LIG   0.0000
   4 C4           5.1818     1.0141     1.0029 C.ar         1    LIG   0.0000
   5 C5           4.4829    -0.1879     0.9660 C.ar         1    LIG   0.0000
   6 C6           3.0919    -0.2062     0.9642 C.ar         1    LIG   0.0000
   7 C7           2.3999     1.0000     1.0000 C.ar         1    LIG   0.0000
   8 N8           1.0000     1.0000     1.0000 N.pl3        1    LIG   0.0000
   9 C9           0.2650    -0.2725     0.9615 C.3          1    LIG   0.0000
  10 C10          0.2650     2.2725     1.0385 C.3          1    LIG   0.0000
  11 C11         -0.2039     2.6294    -0.3628 C.3          1    LIG   0.0000
  12 C12          0.3248     1.6460    -1.3643 C.3          1    LIG   0.0000
  13 C13         -1.1126     1.5814    -0.9376 C.3          1    LIG   0.0000
  14 C14         -2.0313     2.1669    -1.9939 C.3          1    LIG   0.0000
  15 C15          3.0798     2.2131     1.0367 C.ar         1    LIG   0.0000
  16 H           -0.3228     3.5884    -0.6200 H            1    LIG   0.0000
  17 H           -1.4293     0.8262    -0.3638 H            1    LIG   0.0000
  18 H            4.3849     5.8580     1.1490 H            1    LIG   0.0000
  19 H            3.4331     4.8381     0.3000 H            1    LIG   0.0000
  20 H            3.4313     4.7885     1.9323 H            1    LIG   0.0000
  21 H            6.1818     1.0192     1.0039 H            1    LIG   0.0000
  22 H            4.9873    -1.0510     0.9405 H            1    LIG   0.0000
  23 H            2.5964    -1.0743     0.9376 H            1    LIG   0.0000
  24 H           -0.7182    -0.0898     0.9670 H            1    LIG   0.0000
  25 H            0.5066    -0.7719     0.1295 H            1    LIG   0.0000
  26 H            0.5066    -0.8213     1.7618 H            1    LIG   0.0000
  27 H            0.8656     2.9940     1.3829 H            1    LIG   0.0000
  28 H           -0.5271     2.1817     1.6421 H            1    LIG   0.0000
  29 H            0.9644     0.9335    -1.0758 H            1    LIG   0.0000
  30 H            0.5589     1.9500    -2.2878 H            1    LIG   0.0000
  31 H           -2.6228     1.4472    -2.3573 H            1    LIG   0.0000
  32 H           -2.5936     2.8858    -1.5851 H            1    LIG   0.0000
  33 H           -1.4830     2.5537    -2.7353 H            1    LIG   0.0000
  34 H            2.5755     3.0763     1.0617 H            1    LIG   0.0000
@<TRIPOS>BOND
   1        1        2 1
   2        2        3 1
   3        3        4 ar
   4        4        5 ar
   5        5        6 ar
   6        6        7 ar
   7        7        8 1
   8        8        9 1
   9        8       10 1
  10       10       11 1
  11       11       12 1
  12       12       13 1
  13       13       11 1
  14       13       14 1
  15        7       15 ar
  16       15        3 ar
  17       11       16 1
  18       13       17 1
  19        1       18 1
  20        1       19 1
  21        1       20 1
  22        4       21 1
  23        5       22 1
  24        6       23 1
  25        9       24 1
  26        9       25 1
  27        9       26 1
  28       10       27 1
  29       10       28 1
  30       12       29 1
  31       12       30 1
  32       14       31 1
  33       14       32 1
  34       14       33 1
  35       15       34 1

@<TRIPOS>MOLECULE

  34   35
SMALL
USER_CHARGES
@<TRIPOS>ATOM
   1 C1           5.5317     4.1146    -0.6699 C.3          1    LIG   0.0000
   2 S2           5.3338     3.7183     1.0850 S.3          1    LIG   0.0000
   3 C3           4.4706     2.2087     1.0382 C.ar         1    LIG   0.0000
   4 C4           5.1818     1.0141     1.0029 C.ar         1    LIG   0.0000
   5 C5           4.4829    -0.1879     0.9660 C.ar         1    LIG   0.0000
   6 C6           3.0919    -0.2062     0.9642 C.ar         1    LIG   0.0000
   7 C7           2.3999     1.0000     1.0000 C.ar         1    LIG   0.0000
   8 N8           1.0000     1.0000     1.0000 N.pl3        1    LIG   0.0000
   9 C9           0.2650    -0.2725     0.9615 C.3          1    LIG   0.0000
  10 C10          0.2650     2.2725     1.0385 C.3          1    LIG   0.0000
  11 C11         -0.2039     2.5440     2.4588 C.3          1    LIG   0.0000
  12 C12          0.1190     1.3844     3.3536 C.3          1    LIG   0.0000
  13 C13          0.9430     2.6368     3.4235 C.3          1    LIG   0.0000
  14 C14          0.5781     3.4736     4.6355 C.3          1    LIG   0.0000
  15 C15          3.0798     2.2131     1.0367 C.ar         1    LIG   0.0000
  16 H           -1.0331     3.0802     2.6165 H            1    LIG   0.0000
  17 H            1.8832     2.6353     3.0827 H            1    LIG   0.0000
  18 H            6.0245     4.9798    -0.7627 H            1    LIG   0.0000
  19 H            6.0489     3.3866    -1.1198 H            1    LIG   0.0000
  20 H            4.6311     4.1965    -1.0968 H            1    LIG   0.0000
  21 H            6.1818     1.0192     1.0039 H            1    LIG   0.0000
  22 H            4.9873    -1.0510     0.9405 H            1    LIG   0.0000
  23 H            2.5964    -1.0743     0.9376 H            1    LIG   0.0000
  24 H           -0.7182    -0.0898     0.9670 H            1    LIG   0.0000
  25 H            0.5066    -0.7719     0.1295 H            1    LIG   0.0000
  26 H            0.5066    -0.8213     1.7618 H            1    LIG   0.0000
  27 H           -0.5271     2.2184     0.4306 H            1    LIG   0.0000
  28 H            0.8656     3.0135     0.7383 H            1    LIG   0.0000
  29 H            0.5108     0.5492     2.9677 H            1    LIG   0.0000
  30 H           -0.4953     1.1476     4.1063 H            1    LIG   0.0000
  31 H            1.3595     3.5170     5.2581 H            1    LIG   0.0000
  32 H            0.3345     4.3978     4.3414 H            1    LIG   0.0000
  33 H           -0.2001     3.0575     5.1058 H            1    LIG   0.0000
  34 H            2.5755     3.0763     1.0617 H            1    LIG   0.0000
@<TRIPOS>BOND
   1        1        2 1
   2        2        3 1
   3        3        4 ar
   4        4        5 ar
   5        5        6 ar
   6        6        7 ar
   7        7        8 1
   8        8        9 1
   9        8       10 1
  10       10       11 1
  11       11       12 1
  12       12       13 1
  13       13       11 1
  14       13       14 1
  15        7       15 ar
  16       15        3 ar
  17       11       16 1
  18       13       17 1
  19        1       18 1
  20        1       19 1
  21        1       20 1
  22        4       21 1
  23        5       22 1
  24        6       23 1
  25        9       24 1
  26        9       25 1
  27        9       26 1
  28       10       27 1
  29       10       28 1
  30       12       29 1
  31       12       30 1
  32       14       31 1
  33       14       32 1
  34       14       33 1
  35       15       34 1

@<TRIPOS>MOLECULE

  34   35
SMALL
USER_CHARGES
@<TRIPOS>ATOM
   1 C1           5.5317     4.1146    -0.6699 C.3          1    LIG   0.0000
   2 S2           5.3338     3.7183     1.0850 S.3          1    LIG   0.0000
   3 C3           4.4706     2.2087     1.0382 C.ar         1    LIG   0.0000
   4 C4           5.1818     1.0141     1.0029 C.ar         1    LIG   0.0000
   5 C5           4.4829    -0.1879     0.9660 C.ar         1    LIG   0.0000
   6 C6           3.0919    -0.2062     0.9642 C.ar         1    LIG   0.0000
   7 C7           2.3999     1.0000     1.0000 C.ar         1    LIG   0.0000
   8 N8           1.0000     1.0000     1.0000 N.pl3        1    LIG   0.0000
   9 C9           0.2650    -0.2725     0.9615 C.3          1    LIG   0.0000
  10 C10          0.2650     2.2725     1.0385 C.3          1    LIG   0.0000
  11 C11         -0.2039     2.6294    -0.3628 C.3          1    LIG   0.0000
  12 C12         -1.7018     2.6180    -0.4386 C.3          1    LIG   0.0000
  13 C13         -0.9641     3.9240    -0.3906 C.3          1    LIG   0.0000
  14 C14         -0.8972     4.5736    -1.7603 C.3          1    LIG   0.0000
  15 C15          3.0798     2.2131     1.0367 C.ar         1    LIG   0.0000
  16 H            0.3380     2.3518    -1.1560 H            1    LIG   0.0000
  17 H           -1.0103     4.4934     0.4301 H            1    LIG   0.0000
  18 H            6.0245     4.9798    -0.7627 H            1    LIG   0.0000
  19 H            6.0489     3.3866    -1.1198 H            1    LIG   0.0000
  20 H            4.6311     4.1965    -1.0968 H            1    LIG   0.0000
  21 H            6.1818     1.0192     1.0039 H            1    LIG   0.0000
  22 H            4.9873    -1.0510     0.9405 H            1    LIG   0.0000
  23 H            2.5964    -1.0743     0.9376 H            1    LIG   0.0000
  24 H           -0.7182    -0.0898     0.9670 H            1    LIG   0.0000
  25 H            0.5066    -0.7719     0.1295 H            1    LIG   0.0000
  26 H            0.5066    -0.8213     1.7618 H            1    LIG   0.0000
  27 H            0.8656     2.9940     1.3829 H            1    LIG   0.0000
  28 H           -0.5271     2.1817     1.6421 H            1    LIG   0.0000
  29 H           -2.2400     2.3186     0.3493 H            1    LIG   0.0000
  30 H           -2.1575     2.3319    -1.2816 H            1    LIG   0.0000
  31 H           -1.4112     5.4314    -1.7479 H            1    LIG   0.0000
  32 H            0.0569     4.7601    -1.9946 H            1    LIG   0.0000
  33 H           -1.2934     3.9575    -2.4412 H            1    LIG   0.0000
  34 H            2.5755     3.0763     1.0617 H            1    LIG   0.0000
@<TRIPOS>BOND
   1        1        2 1
   2        2        3 1
   3        3        4 ar
   4        4        5 ar
   5        5        6 ar
   6        6        7 ar
   7        7        8 1
   8        8        9 1
   9        8       10 1
  10       10       11 1
  11       11       12 1
  12       12       13 1
  13       13       11 1
  14       13       14 1
  15        7       15 ar
  16       15        3 ar
  17       11       16 1
  18       13       17 1
  19        1       18 1
  20        1       19 1
  21        1       20 1
  22        4       21 1
  23        5       22 1
  24        6       23 1
  25        9       24 1
  26        9       25 1
  27        9       26 1
  28       10       27 1
  29       10       28 1
  30       12       29 1
  31       12       30 1
  32       14       31 1
  33       14       32 1
  34       14       33 1
  35       15       34 1

@<TRIPOS>MOLECULE

  34   35
SMALL
USER_CHARGES
@<TRIPOS>ATOM
   1 C1           5.5277     4.0073     2.8613 C.3          1    LIG   0.0000
   2 S2           5.3338     3.7183     1.0850 S.3          1    LIG   0.0000
   3 C3           4.4706     2.2087     1.0382 C.ar         1    LIG   0.0000
   4 C4           5.1818     1.0141     1.0029 C.ar         1    LIG   0.0000
   5 C5           4.4829    -0.1879     0.9660 C.ar         1    LIG   0.0000
   6 C6           3.0919    -0.2062     0.9642 C.ar         1    LIG   0.0000
   7 C7           2.3999     1.0000     1.0000 C.ar         1    LIG   0.0000
   8 N8           1.0000     1.0000     1.0000 N.pl3        1    LIG   0.0000
   9 C9           0.2650    -0.2725     0.9615 C.3          1    LIG   0.0000
  10 C10          0.2650     2.2725     1.0385 C.3          1    LIG   0.0000
  11 C11         -0.2039     2.5440     2.4588 C.3          1    LIG   0.0000
  12 C12         -1.6870     2.7654     2.4933 C.3          1    LIG   0.0000
  13 C13         -1.1126     1.4632     2.9692 C.3          1    LIG   0.0000
  14 C14         -1.0857     1.3899     4.4847 C.3          1    LIG   0.0000
  15 C15          3.0798     2.2131     1.0367 C.ar         1    LIG   0.0000
  16 H            0.3893     3.0385     3.0941 H            1    LIG   0.0000
  17 H           -1.2496     0.6311     2.4317 H            1    LIG   0.0000
  18 H            6.0202     4.8652     3.0076 H            1    LIG   0.0000
  19 H            4.6261     4.0631     3.2903 H            1    LIG   0.0000
  20 H            6.0439     3.2532     3.2673 H            1    LIG   0.0000
  21 H            6.1818     1.0192     1.0039 H            1    LIG   0.0000
  22 H            4.9873    -1.0510     0.9405 H            1    LIG   0.0000
  23 H            2.5964    -1.0743     0.9376 H            1    LIG   0.0000
  24 H           -0.7182    -0.0898     0.9670 H            1    LIG   0.0000
  25 H            0.5066    -0.7719     0.1295 H            1    LIG   0.0000
  26 H            0.5066    -0.8213     1.7618 H            1    LIG   0.0000
  27 H           -0.5271     2.2184     0.4306 H            1    LIG   0.0000
  28 H            0.8656     3.0135     0.7383 H            1    LIG   0.0000
  29 H           -2.2072     2.8001     1.6400 H            1    LIG   0.0000
  30 H           -2.0813     3.4077     3.1506 H            1    LIG   0.0000
  31 H           -1.6988     0.6630     4.7942 H            1    LIG   0.0000
  32 H           -0.1546     1.1942     4.7925 H            1    LIG   0.0000
  33 H           -1.3860     2.2642     4.8660 H            1    LIG   0.0000
  34 H            2.5755     3.0763     1.0617 H            1    LIG   0.0000
@<TRIPOS>BOND
   1        1        2 1
   2        2        3 1
   3        3        4 ar
   4        4        5 ar
   5        5        6 ar
   6        6        7 ar
   7        7        8 1
   8        8        9 1
   9        8       10 1
  10       10       11 1
  11       11       12 1
  12       12       13 1
  13       13       11 1
  14       13       14 1
  15        7       15 ar
  16       15        3 ar
  17       11       16 1
  18       13       17 1
  19        1       18 1
  20        1       19 1
  21        1       20 1
  22        4       21 1
  23        5       22 1
  24        6       23 1
  25        9       24 1
  26        9       25 1
  27        9       26 1
  28       10       27 1
  29       10       28 1
  30       12       29 1
  31       12       30 1
  32       14       31 1
  33       14       32 1
  34       14       33 1
  35       15       34 1

