@<TRIPOS>MOLECULE
*****
 34 35 0 0 0
SMALL
USER_CHARGES

@<TRIPOS>ATOM
      1 C1          7.0633    0.9292    3.1848 C.3     1  LIG1        0.0000
      2 S2          5.3338    0.9150    3.7183 S.3     1  LIG1        0.0000
      3 C3          4.4706    0.9618    2.2087 C.ar    1  LIG1        0.0000
      4 C4          5.1818    0.9971    1.0141 C.ar    1  LIG1        0.0000
      5 C5          4.4829    1.0340   -0.1879 C.ar    1  LIG1        0.0000
      6 C6          3.0919    1.0358   -0.2062 C.ar    1  LIG1        0.0000
      7 C7          2.3999    1.0000    1.0000 C.ar    1  LIG1        0.0000
      8 N8          1.0000    1.0000    1.0000 N.pl3   1  LIG1        0.0000
      9 C9          0.2650   -0.2725    0.9615 C.3     1  LIG1        0.0000
     10 C10         0.2650    2.2725    1.0385 C.3     1  LIG1        0.0000
     11 C11         1.2340    3.4240    0.8243 C.3     1  LIG1        0.0000
     12 C12         1.1371    4.4131    1.9477 C.3     1  LIG1        0.0000
     13 C13         2.3006    3.4676    1.8803 C.3     1  LIG1        0.0000
     14 C14         3.5508    4.1621    1.3733 C.3     1  LIG1        0.0000
     15 C15         3.0798    0.9633    2.2131 C.ar    1  LIG1        0.0000
     16 H           1.4363    3.7400   -0.1026 H       1  LIG1        0.0000
     17 H           2.3774    2.7227    2.5431 H       1  LIG1        0.0000
     18 H           7.6598    0.9041    3.9871 H       1  LIG1        0.0000
     19 H           7.2419    0.1295    2.6115 H       1  LIG1        0.0000
     20 H           7.2438    1.7618    2.6612 H       1  LIG1        0.0000
     21 H           6.1818    0.9961    1.0192 H       1  LIG1        0.0000
     22 H           4.9873    1.0595   -1.0510 H       1  LIG1        0.0000
     23 H           2.5964    1.0624   -1.0743 H       1  LIG1        0.0000
     24 H          -0.7182   -0.0898    0.9670 H       1  LIG1        0.0000
     25 H           0.5066   -0.7719    0.1295 H       1  LIG1        0.0000
     26 H           0.5066   -0.8213    1.7618 H       1  LIG1        0.0000
     27 H          -0.1809    2.3731    1.9279 H       1  LIG1        0.0000
     28 H          -0.4265    2.2800    0.3162 H       1  LIG1        0.0000
     29 H           0.4404    4.2987    2.6558 H       1  LIG1        0.0000
     30 H           1.2739    5.3875    1.7690 H       1  LIG1        0.0000
     31 H           4.2412    4.1757    2.0966 H       1  LIG1        0.0000
     32 H           3.9082    3.6684    0.5805 H       1  LIG1        0.0000
     33 H           3.3269    5.1001    1.1086 H       1  LIG1        0.0000
     34 H           2.5755    0.9383    3.0763 H       1  LIG1        0.0000
@<TRIPOS>BOND
     1     1     2    1
     2     2     3    1
     3     3     4   ar
     4     4     5   ar
     5     5     6   ar
     6     6     7   ar
     7     7     8    1
     8     8     9    1
     9     8    10    1
    10    10    11    1
    11    11    12    1
    12    12    13    1
    13    13    11    1
    14    13    14    1
    15     7    15   ar
    16    15     3   ar
    17    11    16    1
    18    13    17    1
    19     1    18    1
    20     1    19    1
    21     1    20    1
    22     4    21    1
    23     5    22    1
    24     6    23    1
    25     9    24    1
    26     9    25    1
    27     9    26    1
    28    10    27    1
    29    10    28    1
    30    12    29    1
    31    12    30    1
    32    14    31    1
    33    14    32    1
    34    14    33    1
    35    15    34    1
