@<TRIPOS>MOLECULE
*****
 34 35 0 0 0
SMALL
USER_CHARGES

@<TRIPOS>ATOM
      1 C1          5.5317   -0.6699   -2.1146 C.3     1  LIG1        0.0000
      2 S2          5.3338    1.0850   -1.7183 S.3     1  LIG1        0.0000
      3 C3          4.4706    1.0382   -0.2087 C.ar    1  LIG1        0.0000
      4 C4          5.1818    1.0029    0.9859 C.ar    1  LIG1        0.0000
      5 C5          4.4829    0.9660    2.1879 C.ar    1  LIG1        0.0000
      6 C6          3.0919    0.9642    2.2062 C.ar    1  LIG1        0.0000
      7 C7          2.3999    1.0000    1.0000 C.ar    1  LIG1        0.0000
      8 N8          1.0000    1.0000    1.0000 N.pl3   1  LIG1        0.0000
      9 C9          0.2650   -0.2725    0.9615 C.3     1  LIG1        0.0000
     10 C10         0.2650    2.2725    1.0385 C.3     1  LIG1        0.0000
     11 C11        -0.2039    2.5440    2.4588 C.3     1  LIG1        0.0000
     12 C12         0.4665    3.7660    3.0129 C.3     1  LIG1        0.0000
     13 C13        -0.9641    3.8345    2.5648 C.3     1  LIG1        0.0000
     14 C14        -1.9165    3.8183    3.7461 C.3     1  LIG1        0.0000
     15 C15         3.0798    1.0367   -0.2131 C.ar    1  LIG1        0.0000
     16 H          -0.4295    1.7808    3.0642 H       1  LIG1        0.0000
     17 H          -1.2041    4.3419    1.7372 H       1  LIG1        0.0000
     18 H           6.0245   -0.7627   -2.9798 H       1  LIG1        0.0000
     19 H           6.0489   -1.1198   -1.3866 H       1  LIG1        0.0000
     20 H           4.6311   -1.0968   -2.1965 H       1  LIG1        0.0000
     21 H           6.1818    1.0039    0.9808 H       1  LIG1        0.0000
     22 H           4.9873    0.9405    3.0510 H       1  LIG1        0.0000
     23 H           2.5964    0.9376    3.0743 H       1  LIG1        0.0000
     24 H          -0.7182   -0.0898    0.9670 H       1  LIG1        0.0000
     25 H           0.5066   -0.7719    0.1295 H       1  LIG1        0.0000
     26 H           0.5066   -0.8213    1.7618 H       1  LIG1        0.0000
     27 H          -0.5271    2.2184    0.4306 H       1  LIG1        0.0000
     28 H           0.8656    3.0135    0.7383 H       1  LIG1        0.0000
     29 H           1.1785    4.2285    2.4846 H       1  LIG1        0.0000
     30 H           0.6883    3.8163    3.9868 H       1  LIG1        0.0000
     31 H          -2.4072    4.6885    3.7906 H       1  LIG1        0.0000
     32 H          -2.5720    3.0713    3.6355 H       1  LIG1        0.0000
     33 H          -1.3979    3.6845    4.5905 H       1  LIG1        0.0000
     34 H           2.5755    1.0617   -1.0763 H       1  LIG1        0.0000
@<TRIPOS>BOND
     1     1     2    1
     2     2     3    1
     3     3     4   ar
     4     4     5   ar
     5     5     6   ar
     6     6     7   ar
     7     7     8    1
     8     8     9    1
     9     8    10    1
    10    10    11    1
    11    11    12    1
    12    12    13    1
    13    13    11    1
    14    13    14    1
    15     7    15   ar
    16    15     3   ar
    17    11    16    1
    18    13    17    1
    19     1    18    1
    20     1    19    1
    21     1    20    1
    22     4    21    1
    23     5    22    1
    24     6    23    1
    25     9    24    1
    26     9    25    1
    27     9    26    1
    28    10    27    1
    29    10    28    1
    30    12    29    1
    31    12    30    1
    32    14    31    1
    33    14    32    1
    34    14    33    1
    35    15    34    1
