@<TRIPOS>MOLECULE
*****
 34 35 0 0 0
SMALL
USER_CHARGES

@<TRIPOS>ATOM
      1 C1          5.5317    4.1146   -0.6699 C.3     1  LIG1        0.0000
      2 S2          5.3338    3.7183    1.0850 S.3     1  LIG1        0.0000
      3 C3          4.4706    2.2087    1.0382 C.ar    1  LIG1        0.0000
      4 C4          5.1818    1.0141    1.0029 C.ar    1  LIG1        0.0000
      5 C5          4.4829   -0.1879    0.9660 C.ar    1  LIG1        0.0000
      6 C6          3.0919   -0.2062    0.9642 C.ar    1  LIG1        0.0000
      7 C7          2.3999    1.0000    1.0000 C.ar    1  LIG1        0.0000
      8 N8          1.0000    1.0000    1.0000 N.pl3   1  LIG1        0.0000
      9 C9          0.2650   -0.2725    0.9615 C.3     1  LIG1        0.0000
     10 C10         0.2650    2.2725    1.0385 C.3     1  LIG1        0.0000
     11 C11        -0.2039    2.5440    2.4588 C.3     1  LIG1        0.0000
     12 C12         0.1190    1.3844    3.3536 C.3     1  LIG1        0.0000
     13 C13         0.9430    2.6368    3.4235 C.3     1  LIG1        0.0000
     14 C14         0.5781    3.4736    4.6355 C.3     1  LIG1        0.0000
     15 C15         3.0798    2.2131    1.0367 C.ar    1  LIG1        0.0000
     16 H          -1.0331    3.0802    2.6165 H       1  LIG1        0.0000
     17 H           1.8832    2.6353    3.0827 H       1  LIG1        0.0000
     18 H           6.0245    4.9798   -0.7627 H       1  LIG1        0.0000
     19 H           6.0489    3.3866   -1.1198 H       1  LIG1        0.0000
     20 H           4.6311    4.1965   -1.0968 H       1  LIG1        0.0000
     21 H           6.1818    1.0192    1.0039 H       1  LIG1        0.0000
     22 H           4.9873   -1.0510    0.9405 H       1  LIG1        0.0000
     23 H           2.5964   -1.0743    0.9376 H       1  LIG1        0.0000
     24 H          -0.7182   -0.0898    0.9670 H       1  LIG1        0.0000
     25 H           0.5066   -0.7719    0.1295 H       1  LIG1        0.0000
     26 H           0.5066   -0.8213    1.7618 H       1  LIG1        0.0000
     27 H          -0.5271    2.2184    0.4306 H       1  LIG1        0.0000
     28 H           0.8656    3.0135    0.7383 H       1  LIG1        0.0000
     29 H           0.5108    0.5492    2.9677 H       1  LIG1        0.0000
     30 H          -0.4953    1.1476    4.1063 H       1  LIG1        0.0000
     31 H           1.3595    3.5170    5.2581 H       1  LIG1        0.0000
     32 H           0.3345    4.3978    4.3414 H       1  LIG1        0.0000
     33 H          -0.2001    3.0575    5.1058 H       1  LIG1        0.0000
     34 H           2.5755    3.0763    1.0617 H       1  LIG1        0.0000
@<TRIPOS>BOND
     1     1     2    1
     2     2     3    1
     3     3     4   ar
     4     4     5   ar
     5     5     6   ar
     6     6     7   ar
     7     7     8    1
     8     8     9    1
     9     8    10    1
    10    10    11    1
    11    11    12    1
    12    12    13    1
    13    13    11    1
    14    13    14    1
    15     7    15   ar
    16    15     3   ar
    17    11    16    1
    18    13    17    1
    19     1    18    1
    20     1    19    1
    21     1    20    1
    22     4    21    1
    23     5    22    1
    24     6    23    1
    25     9    24    1
    26     9    25    1
    27     9    26    1
    28    10    27    1
    29    10    28    1
    30    12    29    1
    31    12    30    1
    32    14    31    1
    33    14    32    1
    34    14    33    1
    35    15    34    1
