@<TRIPOS>MOLECULE
*****
 34 35 0 0 0
SMALL
USER_CHARGES

@<TRIPOS>ATOM
      1 C1          7.0633    3.1848    1.0708 C.3     1  LIG1        0.0000
      2 S2          5.3338    3.7183    1.0850 S.3     1  LIG1        0.0000
      3 C3          4.4706    2.2087    1.0382 C.ar    1  LIG1        0.0000
      4 C4          5.1818    1.0141    1.0029 C.ar    1  LIG1        0.0000
      5 C5          4.4829   -0.1879    0.9660 C.ar    1  LIG1        0.0000
      6 C6          3.0919   -0.2062    0.9642 C.ar    1  LIG1        0.0000
      7 C7          2.3999    1.0000    1.0000 C.ar    1  LIG1        0.0000
      8 N8          1.0000    1.0000    1.0000 N.pl3   1  LIG1        0.0000
      9 C9          0.2650   -0.2725    0.9615 C.3     1  LIG1        0.0000
     10 C10         0.2650    2.2725    1.0385 C.3     1  LIG1        0.0000
     11 C11        -0.2039    2.6294   -0.3628 C.3     1  LIG1        0.0000
     12 C12         0.2756    3.9971   -0.7490 C.3     1  LIG1        0.0000
     13 C13         0.9430    2.7803   -1.3201 C.3     1  LIG1        0.0000
     14 C14         0.5045    2.5273   -2.7506 C.3     1  LIG1        0.0000
     15 C15         3.0798    2.2131    1.0367 C.ar    1  LIG1        0.0000
     16 H          -1.0886    2.2994   -0.6921 H       1  LIG1        0.0000
     17 H           1.8692    2.5373   -1.0316 H       1  LIG1        0.0000
     18 H           7.6598    3.9871    1.0959 H       1  LIG1        0.0000
     19 H           7.2419    2.6115    1.8705 H       1  LIG1        0.0000
     20 H           7.2438    2.6612    0.2382 H       1  LIG1        0.0000
     21 H           6.1818    1.0192    1.0039 H       1  LIG1        0.0000
     22 H           4.9873   -1.0510    0.9405 H       1  LIG1        0.0000
     23 H           2.5964   -1.0743    0.9376 H       1  LIG1        0.0000
     24 H          -0.7182   -0.0898    0.9670 H       1  LIG1        0.0000
     25 H           0.5066   -0.7719    0.1295 H       1  LIG1        0.0000
     26 H           0.5066   -0.8213    1.7618 H       1  LIG1        0.0000
     27 H           0.8656    2.9940    1.3829 H       1  LIG1        0.0000
     28 H          -0.5271    2.1817    1.6421 H       1  LIG1        0.0000
     29 H           0.7577    4.5648   -0.0817 H       1  LIG1        0.0000
     30 H          -0.2898    4.5782   -1.3344 H       1  LIG1        0.0000
     31 H           1.2875    2.6348   -3.3632 H       1  LIG1        0.0000
     32 H           0.1446    1.5976   -2.8295 H       1  LIG1        0.0000
     33 H          -0.2077    3.1828   -3.0018 H       1  LIG1        0.0000
     34 H           2.5755    3.0763    1.0617 H       1  LIG1        0.0000
@<TRIPOS>BOND
     1     1     2    1
     2     2     3    1
     3     3     4   ar
     4     4     5   ar
     5     5     6   ar
     6     6     7   ar
     7     7     8    1
     8     8     9    1
     9     8    10    1
    10    10    11    1
    11    11    12    1
    12    12    13    1
    13    13    11    1
    14    13    14    1
    15     7    15   ar
    16    15     3   ar
    17    11    16    1
    18    13    17    1
    19     1    18    1
    20     1    19    1
    21     1    20    1
    22     4    21    1
    23     5    22    1
    24     6    23    1
    25     9    24    1
    26     9    25    1
    27     9    26    1
    28    10    27    1
    29    10    28    1
    30    12    29    1
    31    12    30    1
    32    14    31    1
    33    14    32    1
    34    14    33    1
    35    15    34    1
