@<TRIPOS>MOLECULE
*****
 34 35 0 0 0
SMALL
USER_CHARGES

@<TRIPOS>ATOM
      1 C1          7.0633    1.0708   -1.1848 C.3     1  LIG1        0.0000
      2 S2          5.3338    1.0850   -1.7183 S.3     1  LIG1        0.0000
      3 C3          4.4706    1.0382   -0.2087 C.ar    1  LIG1        0.0000
      4 C4          5.1818    1.0029    0.9859 C.ar    1  LIG1        0.0000
      5 C5          4.4829    0.9660    2.1879 C.ar    1  LIG1        0.0000
      6 C6          3.0919    0.9642    2.2062 C.ar    1  LIG1        0.0000
      7 C7          2.3999    1.0000    1.0000 C.ar    1  LIG1        0.0000
      8 N8          1.0000    1.0000    1.0000 N.pl3   1  LIG1        0.0000
      9 C9          0.2650   -0.2725    0.9615 C.3     1  LIG1        0.0000
     10 C10         0.2650    2.2725    1.0385 C.3     1  LIG1        0.0000
     11 C11        -0.2039    2.6294   -0.3628 C.3     1  LIG1        0.0000
     12 C12        -1.7018    2.6180   -0.4386 C.3     1  LIG1        0.0000
     13 C13        -0.9641    3.9240   -0.3906 C.3     1  LIG1        0.0000
     14 C14        -0.8972    4.5736   -1.7603 C.3     1  LIG1        0.0000
     15 C15         3.0798    1.0367   -0.2131 C.ar    1  LIG1        0.0000
     16 H           0.3380    2.3518   -1.1560 H       1  LIG1        0.0000
     17 H          -1.0103    4.4934    0.4301 H       1  LIG1        0.0000
     18 H           7.6598    1.0959   -1.9871 H       1  LIG1        0.0000
     19 H           7.2419    1.8705   -0.6115 H       1  LIG1        0.0000
     20 H           7.2438    0.2382   -0.6612 H       1  LIG1        0.0000
     21 H           6.1818    1.0039    0.9808 H       1  LIG1        0.0000
     22 H           4.9873    0.9405    3.0510 H       1  LIG1        0.0000
     23 H           2.5964    0.9376    3.0743 H       1  LIG1        0.0000
     24 H          -0.7182   -0.0898    0.9670 H       1  LIG1        0.0000
     25 H           0.5066   -0.7719    0.1295 H       1  LIG1        0.0000
     26 H           0.5066   -0.8213    1.7618 H       1  LIG1        0.0000
     27 H           0.8656    2.9940    1.3829 H       1  LIG1        0.0000
     28 H          -0.5271    2.1817    1.6421 H       1  LIG1        0.0000
     29 H          -2.2400    2.3186    0.3493 H       1  LIG1        0.0000
     30 H          -2.1575    2.3319   -1.2816 H       1  LIG1        0.0000
     31 H          -1.4112    5.4314   -1.7479 H       1  LIG1        0.0000
     32 H           0.0569    4.7601   -1.9946 H       1  LIG1        0.0000
     33 H          -1.2934    3.9575   -2.4412 H       1  LIG1        0.0000
     34 H           2.5755    1.0617   -1.0763 H       1  LIG1        0.0000
@<TRIPOS>BOND
     1     1     2    1
     2     2     3    1
     3     3     4   ar
     4     4     5   ar
     5     5     6   ar
     6     6     7   ar
     7     7     8    1
     8     8     9    1
     9     8    10    1
    10    10    11    1
    11    11    12    1
    12    12    13    1
    13    13    11    1
    14    13    14    1
    15     7    15   ar
    16    15     3   ar
    17    11    16    1
    18    13    17    1
    19     1    18    1
    20     1    19    1
    21     1    20    1
    22     4    21    1
    23     5    22    1
    24     6    23    1
    25     9    24    1
    26     9    25    1
    27     9    26    1
    28    10    27    1
    29    10    28    1
    30    12    29    1
    31    12    30    1
    32    14    31    1
    33    14    32    1
    34    14    33    1
    35    15    34    1
