@<TRIPOS>MOLECULE
*****
 32 33 0 0 0
SMALL
USER_CHARGES

@<TRIPOS>ATOM
      1 C1         -0.6491    3.9160    1.6532 C.3     1  LIG1        0.0000
      2 N2         -1.5629    3.2036    0.7481 N.pl3   1  LIG1        0.0000
      3 C3         -1.2825    2.0861    0.0254 C.2     1  LIG1        0.0000
      4 C4         -0.0173    1.3776    0.0102 C.ar    1  LIG1        0.0000
      5 C5          1.1712    2.1003    0.0072 C.ar    1  LIG1        0.0000
      6 C6          2.3824    1.4162   -0.0077 C.ar    1  LIG1        0.0000
      7 C7          2.3953    0.0257   -0.0205 C.ar    1  LIG1        0.0000
      8 C8          3.7226   -0.7135   -0.0371 C.3     1  LIG1        0.0000
      9 C9          4.5231   -0.3454    1.2014 C.3     1  LIG1        0.0000
     10 C10         3.4679   -2.2120   -0.0490 C.3     1  LIG1        0.0000
     11 O11         4.4532   -0.3484   -1.1987 O.3     1  LIG1        0.0000
     12 C12         1.2016   -0.6895   -0.0163 C.ar    1  LIG1        0.0000
     13 C13        -0.0137   -0.0137   -0.0015 C.ar    1  LIG1        0.0000
     14 C14        -2.3968    1.7438   -0.6786 C.2     1  LIG1        0.0000
     15 N15        -3.3518    2.6660   -0.3756 N.2     1  LIG1        0.0000
     16 C16        -2.8533    3.5374    0.4729 C.2     1  LIG1        0.0000
     17 Cl17       -3.7325    4.9278    1.1540 Cl      1  LIG1        0.0000
     18 H           0.2365    3.4517    1.6660 H       1  LIG1        0.0000
     19 H          -0.5283    4.8556    1.3332 H       1  LIG1        0.0000
     20 H          -1.0340    3.9250    2.5761 H       1  LIG1        0.0000
     21 H           1.1552    3.1001    0.0158 H       1  LIG1        0.0000
     22 H           3.2436    1.9243   -0.0092 H       1  LIG1        0.0000
     23 H           4.0086   -0.6025    2.0195 H       1  LIG1        0.0000
     24 H           5.3967   -0.8319    1.1905 H       1  LIG1        0.0000
     25 H           4.6906    0.6405    1.2092 H       1  LIG1        0.0000
     26 H           2.9534   -2.4691    0.7691 H       1  LIG1        0.0000
     27 H           2.9413   -2.4542   -0.8638 H       1  LIG1        0.0000
     28 H           4.3415   -2.6985   -0.0599 H       1  LIG1        0.0000
     29 H           5.3268   -0.8349   -1.2097 H       1  LIG1        0.0000
     30 H           1.2177   -1.6893   -0.0240 H       1  LIG1        0.0000
     31 H          -0.8750   -0.5218    0.0008 H       1  LIG1        0.0000
     32 H          -2.4948    0.9653   -1.2986 H       1  LIG1        0.0000
@<TRIPOS>BOND
     1     1     2    1
     2     2     3    1
     3     3     4    1
     4     4     5   ar
     5     5     6   ar
     6     6     7   ar
     7     7     8    1
     8     8     9    1
     9     8    10    1
    10     8    11    1
    11     7    12   ar
    12    12    13   ar
    13    13     4   ar
    14     3    14    2
    15    14    15    1
    16    15    16    2
    17    16     2    1
    18    16    17    1
    19     1    18    1
    20     1    19    1
    21     1    20    1
    22     5    21    1
    23     6    22    1
    24     9    23    1
    25     9    24    1
    26     9    25    1
    27    10    26    1
    28    10    27    1
    29    10    28    1
    30    11    29    1
    31    12    30    1
    32    13    31    1
    33    14    32    1
