@<TRIPOS>MOLECULE

  28   29
SMALL
USER_CHARGES
@<TRIPOS>ATOM
   1 C1          -4.3902    -3.4685     0.0682 C.3          1    LIG   0.0000
   2 C2          -3.1967    -2.5282     0.0181 C.ar         1    LIG   0.0000
   3 C3          -2.6355    -2.1016     1.2168 C.ar         1    LIG   0.0000
   4 C4          -1.5426    -1.2413     1.2186 C.ar         1    LIG   0.0000
   5 C5          -1.0196    -0.8142     0.0026 C.ar         1    LIG   0.0000
   6 N6           0.0805     0.0513    -0.0005 N.pl3        1    LIG   0.0000
   7 C7           0.0335     1.4148     0.0088 C.2          1    LIG   0.0000
   8 C8          -1.2182     2.2783     0.0279 C.3          1    LIG   0.0000
   9 N9           1.2759     1.8347     0.0088 N.2          1    LIG   0.0000
  10 N10          2.1265     0.8332    -0.0154 N.pl3        1    LIG   0.0000
  11 C11          1.3871    -0.3092    -0.0133 C.2          1    LIG   0.0000
  12 O12          1.8244    -1.4473    -0.0229 O.2          1    LIG   0.0000
  13 C13         -1.5720    -1.2333    -1.2037 C.ar         1    LIG   0.0000
  14 C14         -2.6649    -2.0937    -1.1928 C.ar         1    LIG   0.0000
  15 C15         -3.2538    -2.5404    -2.5214 C.3          1    LIG   0.0000
  16 H            3.1242     0.8980    -0.0321 H            1    LIG   0.0000
  17 H           -4.6215    -3.6630     1.0215 H            1    LIG   0.0000
  18 H           -5.1721    -3.0390    -0.3836 H            1    LIG   0.0000
  19 H           -4.1620    -4.3220    -0.4003 H            1    LIG   0.0000
  20 H           -3.0208    -2.4158     2.0844 H            1    LIG   0.0000
  21 H           -1.1391    -0.9346     2.0807 H            1    LIG   0.0000
  22 H           -2.0280     1.6915     0.0233 H            1    LIG   0.0000
  23 H           -1.2207     2.8434     0.8529 H            1    LIG   0.0000
  24 H           -1.2290     2.8676    -0.7799 H            1    LIG   0.0000
  25 H           -1.1865    -0.9187    -2.0711 H            1    LIG   0.0000
  26 H           -2.7385    -2.1249    -3.2710 H            1    LIG   0.0000
  27 H           -3.2000    -3.5365    -2.5918 H            1    LIG   0.0000
  28 H           -4.2103    -2.2536    -2.5753 H            1    LIG   0.0000
@<TRIPOS>BOND
   1        1        2 1
   2        2        3 ar
   3        3        4 ar
   4        4        5 ar
   5        5        6 1
   6        6        7 1
   7        7        8 1
   8        7        9 2
   9        9       10 1
  10       10       11 1
  11       11        6 1
  12       11       12 2
  13        5       13 ar
  14       13       14 ar
  15       14        2 ar
  16       14       15 1
  17       10       16 1
  18        1       17 1
  19        1       18 1
  20        1       19 1
  21        3       20 1
  22        4       21 1
  23        8       22 1
  24        8       23 1
  25        8       24 1
  26       13       25 1
  27       15       26 1
  28       15       27 1
  29       15       28 1

@<TRIPOS>MOLECULE

  28   29
SMALL
USER_CHARGES
@<TRIPOS>ATOM
   1 C1          -4.4077    -3.4462     0.0616 C.3          1    LIG   0.0000
   2 C2          -3.1997    -2.5244     0.0172 C.ar         1    LIG   0.0000
   3 C3          -3.0108    -1.6251     1.0610 C.ar         1    LIG   0.0000
   4 C4          -1.9193    -0.7629     1.0620 C.ar         1    LIG   0.0000
   5 C5          -1.0196    -0.8142     0.0026 C.ar         1    LIG   0.0000
   6 N6           0.0805     0.0513    -0.0005 N.pl3        1    LIG   0.0000
   7 C7           0.0335     1.4148     0.0088 C.2          1    LIG   0.0000
   8 C8          -1.2182     2.2783     0.0279 C.3          1    LIG   0.0000
   9 N9           1.2759     1.8347     0.0088 N.2          1    LIG   0.0000
  10 N10          2.1265     0.8332    -0.0154 N.pl3        1    LIG   0.0000
  11 C11          1.3871    -0.3092    -0.0133 C.2          1    LIG   0.0000
  12 O12          1.8244    -1.4473    -0.0229 O.2          1    LIG   0.0000
  13 C13         -1.1973    -1.7090    -1.0480 C.ar         1    LIG   0.0000
  14 C14         -2.2926    -2.5663    -1.0379 C.ar         1    LIG   0.0000
  15 C15         -2.4689    -3.5368    -2.1949 C.3          1    LIG   0.0000
  16 H            3.1242     0.8980    -0.0321 H            1    LIG   0.0000
  17 H           -4.9346    -3.2655     0.8921 H            1    LIG   0.0000
  18 H           -4.9823    -3.2815    -0.7401 H            1    LIG   0.0000
  19 H           -4.1009    -4.3980     0.0619 H            1    LIG   0.0000
  20 H           -3.6649    -1.5981     1.8169 H            1    LIG   0.0000
  21 H           -1.7836    -0.1163     1.8127 H            1    LIG   0.0000
  22 H           -2.0280     1.6915     0.0233 H            1    LIG   0.0000
  23 H           -1.2207     2.8434     0.8529 H            1    LIG   0.0000
  24 H           -1.2290     2.8676    -0.7799 H            1    LIG   0.0000
  25 H           -0.5431    -1.7356    -1.8038 H            1    LIG   0.0000
  26 H           -1.7215    -3.4160    -2.8482 H            1    LIG   0.0000
  27 H           -2.4598    -4.4746    -1.8477 H            1    LIG   0.0000
  28 H           -3.3414    -3.3583    -2.6498 H            1    LIG   0.0000
@<TRIPOS>BOND
   1        1        2 1
   2        2        3 ar
   3        3        4 ar
   4        4        5 ar
   5        5        6 1
   6        6        7 1
   7        7        8 1
   8        7        9 2
   9        9       10 1
  10       10       11 1
  11       11        6 1
  12       11       12 2
  13        5       13 ar
  14       13       14 ar
  15       14        2 ar
  16       14       15 1
  17       10       16 1
  18        1       17 1
  19        1       18 1
  20        1       19 1
  21        3       20 1
  22        4       21 1
  23        8       22 1
  24        8       23 1
  25        8       24 1
  26       13       25 1
  27       15       26 1
  28       15       27 1
  29       15       28 1

@<TRIPOS>MOLECULE

  28   29
SMALL
USER_CHARGES
@<TRIPOS>ATOM
   1 C1          -4.3730    -3.4903     0.0598 C.3          1    LIG   0.0000
   2 C2          -3.1939    -2.5318     0.0164 C.ar         1    LIG   0.0000
   3 C3          -2.2629    -2.5758     1.0485 C.ar         1    LIG   0.0000
   4 C4          -1.1684    -1.7174     1.0498 C.ar         1    LIG   0.0000
   5 C5          -1.0196    -0.8142     0.0026 C.ar         1    LIG   0.0000
   6 N6           0.0805     0.0513    -0.0005 N.pl3        1    LIG   0.0000
   7 C7           0.0335     1.4148     0.0088 C.2          1    LIG   0.0000
   8 C8          -1.2182     2.2783     0.0279 C.3          1    LIG   0.0000
   9 N9           1.2759     1.8347     0.0088 N.2          1    LIG   0.0000
  10 N10          2.1265     0.8332    -0.0154 N.pl3        1    LIG   0.0000
  11 C11          1.3871    -0.3092    -0.0133 C.2          1    LIG   0.0000
  12 O12          1.8244    -1.4473    -0.0229 O.2          1    LIG   0.0000
  13 C13         -1.9441    -0.7598    -1.0358 C.ar         1    LIG   0.0000
  14 C14         -3.0346    -1.6232    -1.0261 C.ar         1    LIG   0.0000
  15 C15         -4.0334    -1.5483    -2.1700 C.3          1    LIG   0.0000
  16 H            3.1242     0.8980    -0.0321 H            1    LIG   0.0000
  17 H           -4.3109    -4.0583     0.8805 H            1    LIG   0.0000
  18 H           -5.2260    -2.9688     0.0791 H            1    LIG   0.0000
  19 H           -4.3578    -4.0744    -0.7517 H            1    LIG   0.0000
  20 H           -2.3812    -3.2298     1.7956 H            1    LIG   0.0000
  21 H           -0.4989    -1.7492     1.7920 H            1    LIG   0.0000
  22 H           -2.0280     1.6915     0.0233 H            1    LIG   0.0000
  23 H           -1.2207     2.8434     0.8529 H            1    LIG   0.0000
  24 H           -1.2290     2.8676    -0.7799 H            1    LIG   0.0000
  25 H           -1.8256    -0.1055    -1.7827 H            1    LIG   0.0000
  26 H           -3.7486    -0.8395    -2.8154 H            1    LIG   0.0000
  27 H           -4.0701    -2.4308    -2.6388 H            1    LIG   0.0000
  28 H           -4.9386    -1.3253    -1.8081 H            1    LIG   0.0000
@<TRIPOS>BOND
   1        1        2 1
   2        2        3 ar
   3        3        4 ar
   4        4        5 ar
   5        5        6 1
   6        6        7 1
   7        7        8 1
   8        7        9 2
   9        9       10 1
  10       10       11 1
  11       11        6 1
  12       11       12 2
  13        5       13 ar
  14       13       14 ar
  15       14        2 ar
  16       14       15 1
  17       10       16 1
  18        1       17 1
  19        1       18 1
  20        1       19 1
  21        3       20 1
  22        4       21 1
  23        8       22 1
  24        8       23 1
  25        8       24 1
  26       13       25 1
  27       15       26 1
  28       15       27 1
  29       15       28 1

@<TRIPOS>MOLECULE

  28   29
SMALL
USER_CHARGES
@<TRIPOS>ATOM
   1 C1          -4.4172    -3.4342     0.0495 C.3          1    LIG   0.0000
   2 C2          -3.2013    -2.5223     0.0154 C.ar         1    LIG   0.0000
   3 C3          -3.2120    -1.3704     0.7943 C.ar         1    LIG   0.0000
   4 C4          -2.1213    -0.5072     0.7942 C.ar         1    LIG   0.0000
   5 C5          -1.0196    -0.8142     0.0026 C.ar         1    LIG   0.0000
   6 N6           0.0805     0.0513    -0.0005 N.pl3        1    LIG   0.0000
   7 C7           0.0335     1.4148     0.0088 C.2          1    LIG   0.0000
   8 C8          -1.2182     2.2783     0.0279 C.3          1    LIG   0.0000
   9 N9           1.2759     1.8347     0.0088 N.2          1    LIG   0.0000
  10 N10          2.1265     0.8332    -0.0154 N.pl3        1    LIG   0.0000
  11 C11          1.3871    -0.3092    -0.0133 C.2          1    LIG   0.0000
  12 O12          1.8244    -1.4473    -0.0229 O.2          1    LIG   0.0000
  13 C13         -0.9964    -1.9633    -0.7816 C.ar         1    LIG   0.0000
  14 C14         -2.0931    -2.8189    -0.7732 C.ar         1    LIG   0.0000
  15 C15         -2.0483    -4.0695    -1.6367 C.3          1    LIG   0.0000
  16 H            3.1242     0.8980    -0.0321 H            1    LIG   0.0000
  17 H           -5.1025    -3.0529     0.6700 H            1    LIG   0.0000
  18 H           -4.8043    -3.5083    -0.8696 H            1    LIG   0.0000
  19 H           -4.1447    -4.3412     0.3706 H            1    LIG   0.0000
  20 H           -4.0102    -1.1609     1.3591 H            1    LIG   0.0000
  21 H           -2.1291     0.3211     1.3543 H            1    LIG   0.0000
  22 H           -2.0280     1.6915     0.0233 H            1    LIG   0.0000
  23 H           -1.2207     2.8434     0.8529 H            1    LIG   0.0000
  24 H           -1.2290     2.8676    -0.7799 H            1    LIG   0.0000
  25 H           -0.1981    -2.1724    -1.3464 H            1    LIG   0.0000
  26 H           -1.1764    -4.1062    -2.1250 H            1    LIG   0.0000
  27 H           -2.1396    -4.8787    -1.0563 H            1    LIG   0.0000
  28 H           -2.7992    -4.0461    -2.2966 H            1    LIG   0.0000
@<TRIPOS>BOND
   1        1        2 1
   2        2        3 ar
   3        3        4 ar
   4        4        5 ar
   5        5        6 1
   6        6        7 1
   7        7        8 1
   8        7        9 2
   9        9       10 1
  10       10       11 1
  11       11        6 1
  12       11       12 2
  13        5       13 ar
  14       13       14 ar
  15       14        2 ar
  16       14       15 1
  17       10       16 1
  18        1       17 1
  19        1       18 1
  20        1       19 1
  21        3       20 1
  22        4       21 1
  23        8       22 1
  24        8       23 1
  25        8       24 1
  26       13       25 1
  27       15       26 1
  28       15       27 1
  29       15       28 1

@<TRIPOS>MOLECULE

  28   29
SMALL
USER_CHARGES
@<TRIPOS>ATOM
   1 C1          -4.3641    -3.5018     0.0468 C.3          1    LIG   0.0000
   2 C2          -3.1925    -2.5336     0.0141 C.ar         1    LIG   0.0000
   3 C3          -2.0661    -2.8269     0.7751 C.ar         1    LIG   0.0000
   4 C4          -0.9707    -1.9696     0.7754 C.ar         1    LIG   0.0000
   5 C5          -1.0196    -0.8142     0.0026 C.ar         1    LIG   0.0000
   6 N6           0.0805     0.0513    -0.0005 N.pl3        1    LIG   0.0000
   7 C7           0.0335     1.4148     0.0088 C.2          1    LIG   0.0000
   8 C8          -1.2182     2.2783     0.0279 C.3          1    LIG   0.0000
   9 N9           1.2759     1.8347     0.0088 N.2          1    LIG   0.0000
  10 N10          2.1265     0.8332    -0.0154 N.pl3        1    LIG   0.0000
  11 C11          1.3871    -0.3092    -0.0133 C.2          1    LIG   0.0000
  12 O12          1.8244    -1.4473    -0.0229 O.2          1    LIG   0.0000
  13 C13         -2.1407    -0.5090    -0.7629 C.ar         1    LIG   0.0000
  14 C14         -3.2299    -1.3740    -0.7551 C.ar         1    LIG   0.0000
  15 C15         -4.4452    -1.0228    -1.5985 C.3          1    LIG   0.0000
  16 H            3.1242     0.8980    -0.0321 H            1    LIG   0.0000
  17 H           -4.1469    -4.2675     0.6522 H            1    LIG   0.0000
  18 H           -5.1776    -3.0293     0.3856 H            1    LIG   0.0000
  19 H           -4.5383    -3.8455    -0.8760 H            1    LIG   0.0000
  20 H           -2.0434    -3.6608     1.3265 H            1    LIG   0.0000
  21 H           -0.1608    -2.1806     1.3227 H            1    LIG   0.0000
  22 H           -2.0280     1.6915     0.0233 H            1    LIG   0.0000
  23 H           -1.2207     2.8434     0.8529 H            1    LIG   0.0000
  24 H           -1.2290     2.8676    -0.7799 H            1    LIG   0.0000
  25 H           -2.1630     0.3251    -1.3140 H            1    LIG   0.0000
  26 H           -4.2821    -0.1588    -2.0748 H            1    LIG   0.0000
  27 H           -4.6067    -1.7474    -2.2685 H            1    LIG   0.0000
  28 H           -5.2463    -0.9313    -1.0070 H            1    LIG   0.0000
@<TRIPOS>BOND
   1        1        2 1
   2        2        3 ar
   3        3        4 ar
   4        4        5 ar
   5        5        6 1
   6        6        7 1
   7        7        8 1
   8        7        9 2
   9        9       10 1
  10       10       11 1
  11       11        6 1
  12       11       12 2
  13        5       13 ar
  14       13       14 ar
  15       14        2 ar
  16       14       15 1
  17       10       16 1
  18        1       17 1
  19        1       18 1
  20        1       19 1
  21        3       20 1
  22        4       21 1
  23        8       22 1
  24        8       23 1
  25        8       24 1
  26       13       25 1
  27       15       26 1
  28       15       27 1
  29       15       28 1

@<TRIPOS>MOLECULE

  28   29
SMALL
USER_CHARGES
@<TRIPOS>ATOM
   1 C1          -4.3926    -3.4658    -0.0440 C.3          1    LIG   0.0000
   2 C2          -3.1977    -2.5270    -0.0006 C.ar         1    LIG   0.0000
   3 C3          -2.6552    -2.0852    -1.2025 C.ar         1    LIG   0.0000
   4 C4          -1.5619    -1.2253    -1.2104 C.ar         1    LIG   0.0000
   5 C5          -1.0196    -0.8142     0.0026 C.ar         1    LIG   0.0000
   6 N6           0.0805     0.0513    -0.0005 N.pl3        1    LIG   0.0000
   7 C7           0.0335     1.4148     0.0088 C.2          1    LIG   0.0000
   8 C8          -1.2182     2.2783     0.0279 C.3          1    LIG   0.0000
   9 N9           1.2759     1.8347     0.0088 N.2          1    LIG   0.0000
  10 N10          2.1265     0.8332    -0.0154 N.pl3        1    LIG   0.0000
  11 C11          1.3871    -0.3092    -0.0133 C.2          1    LIG   0.0000
  12 O12          1.8244    -1.4473    -0.0229 O.2          1    LIG   0.0000
  13 C13         -1.5527    -1.2492     1.2119 C.ar         1    LIG   0.0000
  14 C14         -2.6461    -2.1090     1.2072 C.ar         1    LIG   0.0000
  15 C15         -3.2142    -2.5726     2.5391 C.3          1    LIG   0.0000
  16 H            3.1242     0.8980    -0.0321 H            1    LIG   0.0000
  17 H           -4.6394    -3.6475    -0.9959 H            1    LIG   0.0000
  18 H           -4.1576    -4.3256     0.4093 H            1    LIG   0.0000
  19 H           -5.1668    -3.0419     0.4260 H            1    LIG   0.0000
  20 H           -3.0543    -2.3880    -2.0679 H            1    LIG   0.0000
  21 H           -1.1719    -0.9077    -2.0747 H            1    LIG   0.0000
  22 H           -2.0280     1.6915     0.0233 H            1    LIG   0.0000
  23 H           -1.2207     2.8434     0.8529 H            1    LIG   0.0000
  24 H           -1.2290     2.8676    -0.7799 H            1    LIG   0.0000
  25 H           -1.1532    -0.9462     2.0772 H            1    LIG   0.0000
  26 H           -2.6866    -2.1675     3.2857 H            1    LIG   0.0000
  27 H           -4.1694    -2.2857     2.6120 H            1    LIG   0.0000
  28 H           -3.1604    -3.5696     2.5955 H            1    LIG   0.0000
@<TRIPOS>BOND
   1        1        2 1
   2        2        3 ar
   3        3        4 ar
   4        4        5 ar
   5        5        6 1
   6        6        7 1
   7        7        8 1
   8        7        9 2
   9        9       10 1
  10       10       11 1
  11       11        6 1
  12       11       12 2
  13        5       13 ar
  14       13       14 ar
  15       14        2 ar
  16       14       15 1
  17       10       16 1
  18        1       17 1
  19        1       18 1
  20        1       19 1
  21        3       20 1
  22        4       21 1
  23        8       22 1
  24        8       23 1
  25        8       24 1
  26       13       25 1
  27       15       26 1
  28       15       27 1
  29       15       28 1

@<TRIPOS>MOLECULE

  28   29
SMALL
USER_CHARGES
@<TRIPOS>ATOM
   1 C1          -4.3751    -3.4880    -0.0374 C.3          1    LIG   0.0000
   2 C2          -3.1948    -2.5307     0.0002 C.ar         1    LIG   0.0000
   3 C3          -2.2799    -2.5616    -1.0467 C.ar         1    LIG   0.0000
   4 C4          -1.1851    -1.7037    -1.0538 C.ar         1    LIG   0.0000
   5 C5          -1.0196    -0.8142     0.0026 C.ar         1    LIG   0.0000
   6 N6           0.0805     0.0513    -0.0005 N.pl3        1    LIG   0.0000
   7 C7           0.0335     1.4148     0.0088 C.2          1    LIG   0.0000
   8 C8          -1.2182     2.2783     0.0279 C.3          1    LIG   0.0000
   9 N9           1.2759     1.8347     0.0088 N.2          1    LIG   0.0000
  10 N10          2.1265     0.8332    -0.0154 N.pl3        1    LIG   0.0000
  11 C11          1.3871    -0.3092    -0.0133 C.2          1    LIG   0.0000
  12 O12          1.8244    -1.4473    -0.0229 O.2          1    LIG   0.0000
  13 C13         -1.9274    -0.7735     1.0562 C.ar         1    LIG   0.0000
  14 C14         -3.0184    -1.6364     1.0523 C.ar         1    LIG   0.0000
  15 C15         -3.9992    -1.5762     2.2125 C.3          1    LIG   0.0000
  16 H            3.1242     0.8980    -0.0321 H            1    LIG   0.0000
  17 H           -4.3264    -4.0449    -0.8666 H            1    LIG   0.0000
  18 H           -4.3474    -4.0831     0.7658 H            1    LIG   0.0000
  19 H           -5.2280    -2.9659    -0.0362 H            1    LIG   0.0000
  20 H           -2.4102    -3.2058    -1.8004 H            1    LIG   0.0000
  21 H           -0.5273    -1.7260    -1.8067 H            1    LIG   0.0000
  22 H           -2.0280     1.6915     0.0233 H            1    LIG   0.0000
  23 H           -1.2207     2.8434     0.8529 H            1    LIG   0.0000
  24 H           -1.2290     2.8676    -0.7799 H            1    LIG   0.0000
  25 H           -1.7967    -0.1293     1.8098 H            1    LIG   0.0000
  26 H           -3.7036    -0.8764     2.8629 H            1    LIG   0.0000
  27 H           -4.9096    -1.3476     1.8678 H            1    LIG   0.0000
  28 H           -4.0293    -2.4649     2.6700 H            1    LIG   0.0000
@<TRIPOS>BOND
   1        1        2 1
   2        2        3 ar
   3        3        4 ar
   4        4        5 ar
   5        5        6 1
   6        6        7 1
   7        7        8 1
   8        7        9 2
   9        9       10 1
  10       10       11 1
  11       11        6 1
  12       11       12 2
  13        5       13 ar
  14       13       14 ar
  15       14        2 ar
  16       14       15 1
  17       10       16 1
  18        1       17 1
  19        1       18 1
  20        1       19 1
  21        3       20 1
  22        4       21 1
  23        8       22 1
  24        8       23 1
  25        8       24 1
  26       13       25 1
  27       15       26 1
  28       15       27 1
  29       15       28 1

@<TRIPOS>MOLECULE

  28   29
SMALL
USER_CHARGES
@<TRIPOS>ATOM
   1 C1          -4.4098    -3.4439    -0.0356 C.3          1    LIG   0.0000
   2 C2          -3.2006    -2.5234     0.0010 C.ar         1    LIG   0.0000
   3 C3          -3.0279    -1.6109    -1.0341 C.ar         1    LIG   0.0000
   4 C4          -1.9361    -0.7491    -1.0416 C.ar         1    LIG   0.0000
   5 C5          -1.0196    -0.8142     0.0026 C.ar         1    LIG   0.0000
   6 N6           0.0805     0.0513    -0.0005 N.pl3        1    LIG   0.0000
   7 C7           0.0335     1.4148     0.0088 C.2          1    LIG   0.0000
   8 C8          -1.2182     2.2783     0.0279 C.3          1    LIG   0.0000
   9 N9           1.2759     1.8347     0.0088 N.2          1    LIG   0.0000
  10 N10          2.1265     0.8332    -0.0154 N.pl3        1    LIG   0.0000
  11 C11          1.3871    -0.3092    -0.0133 C.2          1    LIG   0.0000
  12 O12          1.8244    -1.4473    -0.0229 O.2          1    LIG   0.0000
  13 C13         -1.1806    -1.7227     1.0440 C.ar         1    LIG   0.0000
  14 C14         -2.2764    -2.5795     1.0405 C.ar         1    LIG   0.0000
  15 C15         -2.4346    -3.5648     2.1876 C.3          1    LIG   0.0000
  16 H            3.1242     0.8980    -0.0321 H            1    LIG   0.0000
  17 H           -4.9501    -3.2521    -0.8550 H            1    LIG   0.0000
  18 H           -4.1037    -4.3958    -0.0534 H            1    LIG   0.0000
  19 H           -4.9711    -3.2894     0.7774 H            1    LIG   0.0000
  20 H           -3.6940    -1.5741    -1.7791 H            1    LIG   0.0000
  21 H           -1.8120    -0.0931    -1.7860 H            1    LIG   0.0000
  22 H           -2.0280     1.6915     0.0233 H            1    LIG   0.0000
  23 H           -1.2207     2.8434     0.8529 H            1    LIG   0.0000
  24 H           -1.2290     2.8676    -0.7799 H            1    LIG   0.0000
  25 H           -0.5142    -1.7594     1.7887 H            1    LIG   0.0000
  26 H           -1.6765    -3.4529     2.8301 H            1    LIG   0.0000
  27 H           -3.2993    -3.3914     2.6590 H            1    LIG   0.0000
  28 H           -2.4321    -4.4979     1.8283 H            1    LIG   0.0000
@<TRIPOS>BOND
   1        1        2 1
   2        2        3 ar
   3        3        4 ar
   4        4        5 ar
   5        5        6 1
   6        6        7 1
   7        7        8 1
   8        7        9 2
   9        9       10 1
  10       10       11 1
  11       11        6 1
  12       11       12 2
  13        5       13 ar
  14       13       14 ar
  15       14        2 ar
  16       14       15 1
  17       10       16 1
  18        1       17 1
  19        1       18 1
  20        1       19 1
  21        3       20 1
  22        4       21 1
  23        8       22 1
  24        8       23 1
  25        8       24 1
  26       13       25 1
  27       15       26 1
  28       15       27 1
  29       15       28 1

@<TRIPOS>MOLECULE

  28   29
SMALL
USER_CHARGES
@<TRIPOS>ATOM
   1 C1          -4.3656    -3.5001    -0.0254 C.3          1    LIG   0.0000
   2 C2          -3.1931    -2.5328     0.0021 C.ar         1    LIG   0.0000
   3 C3          -2.0788    -2.8164    -0.7800 C.ar         1    LIG   0.0000
   4 C4          -0.9832    -1.9594    -0.7859 C.ar         1    LIG   0.0000
   5 C5          -1.0196    -0.8142     0.0026 C.ar         1    LIG   0.0000
   6 N6           0.0805     0.0513    -0.0005 N.pl3        1    LIG   0.0000
   7 C7           0.0335     1.4148     0.0088 C.2          1    LIG   0.0000
   8 C8          -1.2182     2.2783     0.0279 C.3          1    LIG   0.0000
   9 N9           1.2759     1.8347     0.0088 N.2          1    LIG   0.0000
  10 N10          2.1265     0.8332    -0.0154 N.pl3        1    LIG   0.0000
  11 C11          1.3871    -0.3092    -0.0133 C.2          1    LIG   0.0000
  12 O12          1.8244    -1.4473    -0.0229 O.2          1    LIG   0.0000
  13 C13         -2.1283    -0.5192     0.7898 C.ar         1    LIG   0.0000
  14 C14         -3.2179    -1.3838     0.7876 C.ar         1    LIG   0.0000
  15 C15         -4.4198    -1.0435     1.6543 C.3          1    LIG   0.0000
  16 H            3.1242     0.8980    -0.0321 H            1    LIG   0.0000
  17 H           -4.1584    -4.2575    -0.6445 H            1    LIG   0.0000
  18 H           -4.5255    -3.8563     0.8953 H            1    LIG   0.0000
  19 H           -5.1841    -3.0227    -0.3449 H            1    LIG   0.0000
  20 H           -2.0649    -3.6430    -1.3426 H            1    LIG   0.0000
  21 H           -0.1819    -2.1634    -1.3484 H            1    LIG   0.0000
  22 H           -2.0280     1.6915     0.0233 H            1    LIG   0.0000
  23 H           -1.2207     2.8434     0.8529 H            1    LIG   0.0000
  24 H           -1.2290     2.8676    -0.7799 H            1    LIG   0.0000
  25 H           -2.1416     0.3074     1.3524 H            1    LIG   0.0000
  26 H           -4.2487    -0.1862     2.1398 H            1    LIG   0.0000
  27 H           -5.2298    -0.9435     1.0765 H            1    LIG   0.0000
  28 H           -4.5714    -1.7771     2.3168 H            1    LIG   0.0000
@<TRIPOS>BOND
   1        1        2 1
   2        2        3 ar
   3        3        4 ar
   4        4        5 ar
   5        5        6 1
   6        6        7 1
   7        7        8 1
   8        7        9 2
   9        9       10 1
  10       10       11 1
  11       11        6 1
  12       11       12 2
  13        5       13 ar
  14       13       14 ar
  15       14        2 ar
  16       14       15 1
  17       10       16 1
  18        1       17 1
  19        1       18 1
  20        1       19 1
  21        3       20 1
  22        4       21 1
  23        8       22 1
  24        8       23 1
  25        8       24 1
  26       13       25 1
  27       15       26 1
  28       15       27 1
  29       15       28 1

@<TRIPOS>MOLECULE

  28   29
SMALL
USER_CHARGES
@<TRIPOS>ATOM
   1 C1          -4.4188    -3.4325    -0.0226 C.3          1    LIG   0.0000
   2 C2          -3.2020    -2.5215     0.0033 C.ar         1    LIG   0.0000
   3 C3          -3.2247    -1.3598    -0.7608 C.ar         1    LIG   0.0000
   4 C4          -2.1337    -0.4970    -0.7672 C.ar         1    LIG   0.0000
   5 C5          -1.0196    -0.8142     0.0026 C.ar         1    LIG   0.0000
   6 N6           0.0805     0.0513    -0.0005 N.pl3        1    LIG   0.0000
   7 C7           0.0335     1.4148     0.0088 C.2          1    LIG   0.0000
   8 C8          -1.2182     2.2783     0.0279 C.3          1    LIG   0.0000
   9 N9           1.2759     1.8347     0.0088 N.2          1    LIG   0.0000
  10 N10          2.1265     0.8332    -0.0154 N.pl3        1    LIG   0.0000
  11 C11          1.3871    -0.3092    -0.0133 C.2          1    LIG   0.0000
  12 O12          1.8244    -1.4473    -0.0229 O.2          1    LIG   0.0000
  13 C13         -0.9841    -1.9735     0.7712 C.ar         1    LIG   0.0000
  14 C14         -2.0811    -2.8287     0.7695 C.ar         1    LIG   0.0000
  15 C15         -2.0228    -4.0902     1.6162 C.3          1    LIG   0.0000
  16 H            3.1242     0.8980    -0.0321 H            1    LIG   0.0000
  17 H           -5.1140    -3.0429    -0.6267 H            1    LIG   0.0000
  18 H           -4.1521    -4.3353    -0.3599 H            1    LIG   0.0000
  19 H           -4.7906    -3.5184     0.9017 H            1    LIG   0.0000
  20 H           -4.0318    -1.1431    -1.3099 H            1    LIG   0.0000
  21 H           -2.1502     0.3384    -1.3167 H            1    LIG   0.0000
  22 H           -2.0280     1.6915     0.0233 H            1    LIG   0.0000
  23 H           -1.2207     2.8434     0.8529 H            1    LIG   0.0000
  24 H           -1.2290     2.8676    -0.7799 H            1    LIG   0.0000
  25 H           -0.1767    -2.1901     1.3201 H            1    LIG   0.0000
  26 H           -1.1430    -4.1336     2.0895 H            1    LIG   0.0000
  27 H           -2.7627    -4.0748     2.2887 H            1    LIG   0.0000
  28 H           -2.1244    -4.8919     1.0272 H            1    LIG   0.0000
@<TRIPOS>BOND
   1        1        2 1
   2        2        3 ar
   3        3        4 ar
   4        4        5 ar
   5        5        6 1
   6        6        7 1
   7        7        8 1
   8        7        9 2
   9        9       10 1
  10       10       11 1
  11       11        6 1
  12       11       12 2
  13        5       13 ar
  14       13       14 ar
  15       14        2 ar
  16       14       15 1
  17       10       16 1
  18        1       17 1
  19        1       18 1
  20        1       19 1
  21        3       20 1
  22        4       21 1
  23        8       22 1
  24        8       23 1
  25        8       24 1
  26       13       25 1
  27       15       26 1
  28       15       27 1
  29       15       28 1

