@<TRIPOS>MOLECULE
*****
 28 29 0 0 0
SMALL
USER_CHARGES

@<TRIPOS>ATOM
      1 C1         -4.3926   -3.4658   -0.0440 C.3     1  LIG1        0.0000
      2 C2         -3.1977   -2.5270   -0.0006 C.3     1  LIG1        0.0000
      3 C3         -2.6552   -2.0852   -1.2025 C.3     1  LIG1        0.0000
      4 C4         -1.5619   -1.2253   -1.2104 C.3     1  LIG1        0.0000
      5 C5         -1.0196   -0.8142    0.0026 C.3     1  LIG1        0.0000
      6 N6          0.0805    0.0513   -0.0005 N.am    1  LIG1        0.0000
      7 C7          0.0335    1.4148    0.0088 C.2     1  LIG1        0.0000
      8 C8         -1.2182    2.2783    0.0279 C.3     1  LIG1        0.0000
      9 N9          1.2759    1.8347    0.0088 N.2     1  LIG1        0.0000
     10 N10         2.1265    0.8332   -0.0154 N.am    1  LIG1        0.0000
     11 C11         1.3871   -0.3092   -0.0133 C.2     1  LIG1        0.0000
     12 O12         1.8244   -1.4473   -0.0229 O.2     1  LIG1        0.0000
     13 C13        -1.5527   -1.2492    1.2119 C.3     1  LIG1        0.0000
     14 C14        -2.6461   -2.1090    1.2072 C.3     1  LIG1        0.0000
     15 C15        -3.2142   -2.5726    2.5391 C.3     1  LIG1        0.0000
     16 H           3.1242    0.8980   -0.0321 H       1  LIG1        0.0000
     17 H          -4.6394   -3.6475   -0.9959 H       1  LIG1        0.0000
     18 H          -4.1576   -4.3256    0.4093 H       1  LIG1        0.0000
     19 H          -5.1668   -3.0419    0.4260 H       1  LIG1        0.0000
     20 H          -3.0543   -2.3880   -2.0679 H       1  LIG1        0.0000
     21 H          -1.1719   -0.9077   -2.0747 H       1  LIG1        0.0000
     22 H          -2.0280    1.6915    0.0233 H       1  LIG1        0.0000
     23 H          -1.2207    2.8434    0.8529 H       1  LIG1        0.0000
     24 H          -1.2290    2.8676   -0.7799 H       1  LIG1        0.0000
     25 H          -1.1532   -0.9462    2.0772 H       1  LIG1        0.0000
     26 H          -2.6866   -2.1675    3.2857 H       1  LIG1        0.0000
     27 H          -4.1694   -2.2857    2.6120 H       1  LIG1        0.0000
     28 H          -3.1604   -3.5696    2.5955 H       1  LIG1        0.0000
@<TRIPOS>BOND
     1     1     2    1
     2     2     3   ar
     3     3     4   ar
     4     4     5   ar
     5     5     6    1
     6     6     7    1
     7     7     8    1
     8     7     9    2
     9     9    10    1
    10    10    11   am
    11    11     6   am
    12    11    12    2
    13     5    13   ar
    14    13    14   ar
    15    14     2   ar
    16    14    15    1
    17    10    16    1
    18     1    17    1
    19     1    18    1
    20     1    19    1
    21     3    20    1
    22     4    21    1
    23     8    22    1
    24     8    23    1
    25     8    24    1
    26    13    25    1
    27    15    26    1
    28    15    27    1
    29    15    28    1
