@<TRIPOS>MOLECULE
*****
 28 29 0 0 0
SMALL
USER_CHARGES

@<TRIPOS>ATOM
      1 C1         -4.4188   -3.4325   -0.0226 C.3     1  LIG1        0.0000
      2 C2         -3.2020   -2.5215    0.0033 C.3     1  LIG1        0.0000
      3 C3         -3.2247   -1.3598   -0.7608 C.3     1  LIG1        0.0000
      4 C4         -2.1337   -0.4970   -0.7672 C.3     1  LIG1        0.0000
      5 C5         -1.0196   -0.8142    0.0026 C.3     1  LIG1        0.0000
      6 N6          0.0805    0.0513   -0.0005 N.am    1  LIG1        0.0000
      7 C7          0.0335    1.4148    0.0088 C.2     1  LIG1        0.0000
      8 C8         -1.2182    2.2783    0.0279 C.3     1  LIG1        0.0000
      9 N9          1.2759    1.8347    0.0088 N.2     1  LIG1        0.0000
     10 N10         2.1265    0.8332   -0.0154 N.am    1  LIG1        0.0000
     11 C11         1.3871   -0.3092   -0.0133 C.2     1  LIG1        0.0000
     12 O12         1.8244   -1.4473   -0.0229 O.2     1  LIG1        0.0000
     13 C13        -0.9841   -1.9735    0.7712 C.3     1  LIG1        0.0000
     14 C14        -2.0811   -2.8287    0.7695 C.3     1  LIG1        0.0000
     15 C15        -2.0228   -4.0902    1.6162 C.3     1  LIG1        0.0000
     16 H           3.1242    0.8980   -0.0321 H       1  LIG1        0.0000
     17 H          -5.1140   -3.0429   -0.6267 H       1  LIG1        0.0000
     18 H          -4.1521   -4.3353   -0.3599 H       1  LIG1        0.0000
     19 H          -4.7906   -3.5184    0.9017 H       1  LIG1        0.0000
     20 H          -4.0318   -1.1431   -1.3099 H       1  LIG1        0.0000
     21 H          -2.1502    0.3384   -1.3167 H       1  LIG1        0.0000
     22 H          -2.0280    1.6915    0.0233 H       1  LIG1        0.0000
     23 H          -1.2207    2.8434    0.8529 H       1  LIG1        0.0000
     24 H          -1.2290    2.8676   -0.7799 H       1  LIG1        0.0000
     25 H          -0.1767   -2.1901    1.3201 H       1  LIG1        0.0000
     26 H          -1.1430   -4.1336    2.0895 H       1  LIG1        0.0000
     27 H          -2.7627   -4.0748    2.2887 H       1  LIG1        0.0000
     28 H          -2.1244   -4.8919    1.0272 H       1  LIG1        0.0000
@<TRIPOS>BOND
     1     1     2    1
     2     2     3   ar
     3     3     4   ar
     4     4     5   ar
     5     5     6    1
     6     6     7    1
     7     7     8    1
     8     7     9    2
     9     9    10    1
    10    10    11   am
    11    11     6   am
    12    11    12    2
    13     5    13   ar
    14    13    14   ar
    15    14     2   ar
    16    14    15    1
    17    10    16    1
    18     1    17    1
    19     1    18    1
    20     1    19    1
    21     3    20    1
    22     4    21    1
    23     8    22    1
    24     8    23    1
    25     8    24    1
    26    13    25    1
    27    15    26    1
    28    15    27    1
    29    15    28    1
