@<TRIPOS>MOLECULE

  24   25
SMALL
USER_CHARGES
@<TRIPOS>ATOM
   1 C1           2.0616    -0.9704     1.8147 C.3          1    LIG   0.0000
   2 O2           0.8420    -0.2723     1.6105 O.3          1    LIG   0.0000
   3 C3           1.0000     1.0000     1.0000 C.3          1    LIG   0.0000
   4 C4           1.8777     1.8777     1.8777 C.2          1    LIG   0.0000
   5 N5           1.4676     2.6741     2.8314 N.2          1    LIG   0.0000
   6 O6           2.4676     3.2470     3.3519 O.2          1    LIG   0.0000
   7 C7           3.5562     2.8382     2.7470 C.2          1    LIG   0.0000
   8 C8           4.9044     3.2720     3.0594 C.ar         1    LIG   0.0000
   9 C9           5.1235     4.1969     4.0750 C.ar         1    LIG   0.0000
  10 C10          6.4285     4.5932     4.3496 C.ar         1    LIG   0.0000
  11 N11          7.4624     4.0976     3.6532 N.ar         1    LIG   1.0000
  12 O12          8.6701     4.4890     3.9369 O.3          1    LIG  -1.0000
  13 C13          7.2670     3.2055     2.6709 C.ar         1    LIG   0.0000
  14 C14          5.9870     2.7677     2.3463 C.ar         1    LIG   0.0000
  15 N15          3.2322     1.9734     1.8170 N.2          1    LIG   0.0000
  16 H            1.8725    -1.8526     2.2459 H            1    LIG   0.0000
  17 H            2.5118    -1.1194     0.9343 H            1    LIG   0.0000
  18 H            2.6593    -0.4308     2.4077 H            1    LIG   0.0000
  19 H            0.1040     1.4299     0.8887 H            1    LIG   0.0000
  20 H            1.4299     0.8887     0.1040 H            1    LIG   0.0000
  21 H            4.3573     4.5700     4.5981 H            1    LIG   0.0000
  22 H            6.5984     5.2578     5.0773 H            1    LIG   0.0000
  23 H            8.0527     2.8499     2.1645 H            1    LIG   0.0000
  24 H            5.8477     2.1020     1.6132 H            1    LIG   0.0000
@<TRIPOS>BOND
   1        1        2 1
   2        2        3 1
   3        3        4 1
   4        4        5 2
   5        5        6 1
   6        6        7 1
   7        7        8 1
   8        8        9 ar
   9        9       10 ar
  10       10       11 ar
  11       11       12 1
  12       11       13 ar
  13       13       14 ar
  14       14        8 ar
  15        7       15 2
  16       15        4 1
  17        1       16 1
  18        1       17 1
  19        1       18 1
  20        3       19 1
  21        3       20 1
  22        9       21 1
  23       10       22 1
  24       13       23 1
  25       14       24 1

@<TRIPOS>MOLECULE

  24   25
SMALL
USER_CHARGES
@<TRIPOS>ATOM
   1 C1           2.0616    -0.9704     1.8147 C.3          1    LIG   0.0000
   2 O2           0.8420    -0.2723     1.6105 O.3          1    LIG   0.0000
   3 C3           1.0000     1.0000     1.0000 C.3          1    LIG   0.0000
   4 C4           1.8777     1.8777     1.8777 C.2          1    LIG   0.0000
   5 N5           2.4152     1.5369     3.0209 N.2          1    LIG   0.0000
   6 O6           3.0828     2.5116     3.4721 O.2          1    LIG   0.0000
   7 C7           2.9945     3.5144     2.6326 C.2          1    LIG   0.0000
   8 C8           3.6225     4.8105     2.8028 C.ar         1    LIG   0.0000
   9 C9           4.3948     5.0705     3.9302 C.ar         1    LIG   0.0000
  10 C10          4.9831     6.3240     4.0642 C.ar         1    LIG   0.0000
  11 N11          4.8145     7.2703     3.1283 N.ar         1    LIG   1.0000
  12 O12          5.3799     8.4314     3.2847 O.3          1    LIG  -1.0000
  13 C13          4.0725     7.0347     2.0362 C.ar         1    LIG   0.0000
  14 C14          3.4571     5.8023     1.8416 C.ar         1    LIG   0.0000
  15 N15          2.2506     3.1579     1.6142 N.2          1    LIG   0.0000
  16 H            1.8725    -1.8526     2.2459 H            1    LIG   0.0000
  17 H            2.5118    -1.1194     0.9343 H            1    LIG   0.0000
  18 H            2.6593    -0.4308     2.4077 H            1    LIG   0.0000
  19 H            0.1040     1.4299     0.8887 H            1    LIG   0.0000
  20 H            1.4299     0.8887     0.1040 H            1    LIG   0.0000
  21 H            4.5246     4.3694     4.6313 H            1    LIG   0.0000
  22 H            5.5403     6.5227     4.8705 H            1    LIG   0.0000
  23 H            3.9600     7.7552     1.3519 H            1    LIG   0.0000
  24 H            2.9054     5.6324     1.0250 H            1    LIG   0.0000
@<TRIPOS>BOND
   1        1        2 1
   2        2        3 1
   3        3        4 1
   4        4        5 2
   5        5        6 1
   6        6        7 1
   7        7        8 1
   8        8        9 ar
   9        9       10 ar
  10       10       11 ar
  11       11       12 1
  12       11       13 ar
  13       13       14 ar
  14       14        8 ar
  15        7       15 2
  16       15        4 1
  17        1       16 1
  18        1       17 1
  19        1       18 1
  20        3       19 1
  21        3       20 1
  22        9       21 1
  23       10       22 1
  24       13       23 1
  25       14       24 1

@<TRIPOS>MOLECULE

  24   25
SMALL
USER_CHARGES
@<TRIPOS>ATOM
   1 C1           1.5132    -1.3249     0.9339 C.3          1    LIG   0.0000
   2 O2           0.8420    -0.2723     1.6105 O.3          1    LIG   0.0000
   3 C3           1.0000     1.0000     1.0000 C.3          1    LIG   0.0000
   4 C4           1.8777     1.8777     1.8777 C.2          1    LIG   0.0000
   5 N5           2.4152     1.5369     3.0209 N.2          1    LIG   0.0000
   6 O6           3.0828     2.5116     3.4721 O.2          1    LIG   0.0000
   7 C7           2.9945     3.5144     2.6326 C.2          1    LIG   0.0000
   8 C8           3.6225     4.8105     2.8028 C.ar         1    LIG   0.0000
   9 C9           3.3139     5.5972     3.9077 C.ar         1    LIG   0.0000
  10 C10          3.9329     6.8359     4.0417 C.ar         1    LIG   0.0000
  11 N11          4.8127     7.2714     3.1272 N.ar         1    LIG   1.0000
  12 O12          5.3741     8.4343     3.2839 O.3          1    LIG  -1.0000
  13 C13          5.1201     6.5244     2.0565 C.ar         1    LIG   0.0000
  14 C14          4.5365     5.2764     1.8634 C.ar         1    LIG   0.0000
  15 N15          2.2506     3.1579     1.6142 N.2          1    LIG   0.0000
  16 H            1.3576    -2.1855     1.4187 H            1    LIG   0.0000
  17 H            1.1610    -1.3995     0.0009 H            1    LIG   0.0000
  18 H            2.4939    -1.1310     0.9054 H            1    LIG   0.0000
  19 H            0.1040     1.4299     0.8887 H            1    LIG   0.0000
  20 H            1.4299     0.8887     0.1040 H            1    LIG   0.0000
  21 H            2.6593     5.2783     4.5931 H            1    LIG   0.0000
  22 H            3.7189     7.4104     4.8317 H            1    LIG   0.0000
  23 H            5.7782     6.8696     1.3873 H            1    LIG   0.0000
  24 H            4.7701     4.7239     1.0633 H            1    LIG   0.0000
@<TRIPOS>BOND
   1        1        2 1
   2        2        3 1
   3        3        4 1
   4        4        5 2
   5        5        6 1
   6        6        7 1
   7        7        8 1
   8        8        9 ar
   9        9       10 ar
  10       10       11 ar
  11       11       12 1
  12       11       13 ar
  13       13       14 ar
  14       14        8 ar
  15        7       15 2
  16       15        4 1
  17        1       16 1
  18        1       17 1
  19        1       18 1
  20        3       19 1
  21        3       20 1
  22        9       21 1
  23       10       22 1
  24       13       23 1
  25       14       24 1

@<TRIPOS>MOLECULE

  24   25
SMALL
USER_CHARGES
@<TRIPOS>ATOM
   1 C1           2.0616    -0.9704     1.8147 C.3          1    LIG   0.0000
   2 O2           0.8420    -0.2723     1.6105 O.3          1    LIG   0.0000
   3 C3           1.0000     1.0000     1.0000 C.3          1    LIG   0.0000
   4 C4           1.8777     1.8777     1.8777 C.2          1    LIG   0.0000
   5 N5           2.2335     3.1118     1.6278 N.2          1    LIG   0.0000
   6 O6           2.9616     3.5327     2.5722 O.2          1    LIG   0.0000
   7 C7           3.0998     2.5799     3.4617 C.2          1    LIG   0.0000
   8 C8           3.8680     2.6801     4.6877 C.ar         1    LIG   0.0000
   9 C9           4.5355     3.8598     5.0001 C.ar         1    LIG   0.0000
  10 C10          5.2644     3.9236     6.1834 C.ar         1    LIG   0.0000
  11 N11          5.3276     2.8718     7.0138 N.ar         1    LIG   1.0000
  12 O12          6.0174     2.9659     8.1126 O.3          1    LIG  -1.0000
  13 C13          4.6898     1.7275     6.7261 C.ar         1    LIG   0.0000
  14 C14          3.9436     1.5983     5.5591 C.ar         1    LIG   0.0000
  15 N15          2.4312     1.5238     3.0676 N.2          1    LIG   0.0000
  16 H            1.8725    -1.8526     2.2459 H            1    LIG   0.0000
  17 H            2.5118    -1.1194     0.9343 H            1    LIG   0.0000
  18 H            2.6593    -0.4308     2.4077 H            1    LIG   0.0000
  19 H            0.1040     1.4299     0.8887 H            1    LIG   0.0000
  20 H            1.4299     0.8887     0.1040 H            1    LIG   0.0000
  21 H            4.4923     4.6475     4.3856 H            1    LIG   0.0000
  22 H            5.7487     4.7663     6.4185 H            1    LIG   0.0000
  23 H            4.7514     0.9562     7.3595 H            1    LIG   0.0000
  24 H            3.4698     0.7428     5.3502 H            1    LIG   0.0000
@<TRIPOS>BOND
   1        1        2 1
   2        2        3 1
   3        3        4 1
   4        4        5 2
   5        5        6 1
   6        6        7 1
   7        7        8 1
   8        8        9 ar
   9        9       10 ar
  10       10       11 ar
  11       11       12 1
  12       11       13 ar
  13       13       14 ar
  14       14        8 ar
  15        7       15 2
  16       15        4 1
  17        1       16 1
  18        1       17 1
  19        1       18 1
  20        3       19 1
  21        3       20 1
  22        9       21 1
  23       10       22 1
  24       13       23 1
  25       14       24 1

@<TRIPOS>MOLECULE

  24   25
SMALL
USER_CHARGES
@<TRIPOS>ATOM
   1 C1           2.0616    -0.9704     1.8147 C.3          1    LIG   0.0000
   2 O2           0.8420    -0.2723     1.6105 O.3          1    LIG   0.0000
   3 C3           1.0000     1.0000     1.0000 C.3          1    LIG   0.0000
   4 C4           1.8777     1.8777     1.8777 C.2          1    LIG   0.0000
   5 N5           3.1811     1.9746     1.8173 N.2          1    LIG   0.0000
   6 O6           3.5767     2.7974     2.6924 O.2          1    LIG   0.0000
   7 C7           2.5380     3.2561     3.3473 C.2          1    LIG   0.0000
   8 C8           2.5862     4.2185     4.4311 C.ar         1    LIG   0.0000
   9 C9           3.8068     4.7334     4.8553 C.ar         1    LIG   0.0000
  10 C10          3.8191     5.6543     5.8979 C.ar         1    LIG   0.0000
  11 N11          2.6797     6.0446     6.4889 N.ar         1    LIG   1.0000
  12 O12          2.7272     6.9083     7.4604 O.3          1    LIG  -1.0000
  13 C13          1.4952     5.5568     6.0914 C.ar         1    LIG   0.0000
  14 C14          1.4136     4.6330     5.0544 C.ar         1    LIG   0.0000
  15 N15          1.4496     2.7083     2.8647 N.2          1    LIG   0.0000
  16 H            1.8725    -1.8526     2.2459 H            1    LIG   0.0000
  17 H            2.5118    -1.1194     0.9343 H            1    LIG   0.0000
  18 H            2.6593    -0.4308     2.4077 H            1    LIG   0.0000
  19 H            0.1040     1.4299     0.8887 H            1    LIG   0.0000
  20 H            1.4299     0.8887     0.1040 H            1    LIG   0.0000
  21 H            4.6596     4.4469     4.4188 H            1    LIG   0.0000
  22 H            4.6906     6.0312     6.2117 H            1    LIG   0.0000
  23 H            0.6587     5.8615     6.5469 H            1    LIG   0.0000
  24 H            0.5275     4.2733     4.7621 H            1    LIG   0.0000
@<TRIPOS>BOND
   1        1        2 1
   2        2        3 1
   3        3        4 1
   4        4        5 2
   5        5        6 1
   6        6        7 1
   7        7        8 1
   8        8        9 ar
   9        9       10 ar
  10       10       11 ar
  11       11       12 1
  12       11       13 ar
  13       13       14 ar
  14       14        8 ar
  15        7       15 2
  16       15        4 1
  17        1       16 1
  18        1       17 1
  19        1       18 1
  20        3       19 1
  21        3       20 1
  22        9       21 1
  23       10       22 1
  24       13       23 1
  25       14       24 1

@<TRIPOS>MOLECULE

  24   25
SMALL
USER_CHARGES
@<TRIPOS>ATOM
   1 C1           1.5132    -1.3249     0.9339 C.3          1    LIG   0.0000
   2 O2           0.8420    -0.2723     1.6105 O.3          1    LIG   0.0000
   3 C3           1.0000     1.0000     1.0000 C.3          1    LIG   0.0000
   4 C4           1.8777     1.8777     1.8777 C.2          1    LIG   0.0000
   5 N5           3.1811     1.9746     1.8173 N.2          1    LIG   0.0000
   6 O6           3.5767     2.7974     2.6924 O.2          1    LIG   0.0000
   7 C7           2.5380     3.2561     3.3473 C.2          1    LIG   0.0000
   8 C8           2.5862     4.2185     4.4311 C.ar         1    LIG   0.0000
   9 C9           3.4602     5.2988     4.3686 C.ar         1    LIG   0.0000
  10 C10          3.4828     6.2039     5.4249 C.ar         1    LIG   0.0000
  11 N11          2.6797     6.0458     6.4879 N.ar         1    LIG   1.0000
  12 O12          2.7257     6.9115     7.4577 O.3          1    LIG  -1.0000
  13 C13          1.8320     5.0091     6.5627 C.ar         1    LIG   0.0000
  14 C14          1.7601     4.0685     5.5403 C.ar         1    LIG   0.0000
  15 N15          1.4496     2.7083     2.8647 N.2          1    LIG   0.0000
  16 H            1.3576    -2.1855     1.4187 H            1    LIG   0.0000
  17 H            1.1610    -1.3995     0.0009 H            1    LIG   0.0000
  18 H            2.4939    -1.1310     0.9054 H            1    LIG   0.0000
  19 H            0.1040     1.4299     0.8887 H            1    LIG   0.0000
  20 H            1.4299     0.8887     0.1040 H            1    LIG   0.0000
  21 H            4.0612     5.4225     3.5790 H            1    LIG   0.0000
  22 H            4.1072     6.9843     5.3913 H            1    LIG   0.0000
  23 H            1.2432     4.9109     7.3650 H            1    LIG   0.0000
  24 H            1.1257     3.2979     5.6016 H            1    LIG   0.0000
@<TRIPOS>BOND
   1        1        2 1
   2        2        3 1
   3        3        4 1
   4        4        5 2
   5        5        6 1
   6        6        7 1
   7        7        8 1
   8        8        9 ar
   9        9       10 ar
  10       10       11 ar
  11       11       12 1
  12       11       13 ar
  13       13       14 ar
  14       14        8 ar
  15        7       15 2
  16       15        4 1
  17        1       16 1
  18        1       17 1
  19        1       18 1
  20        3       19 1
  21        3       20 1
  22        9       21 1
  23       10       22 1
  24       13       23 1
  25       14       24 1

@<TRIPOS>MOLECULE

  24   25
SMALL
USER_CHARGES
@<TRIPOS>ATOM
   1 C1           1.5132    -1.3249     0.9339 C.3          1    LIG   0.0000
   2 O2           0.8420    -0.2723     1.6105 O.3          1    LIG   0.0000
   3 C3           1.0000     1.0000     1.0000 C.3          1    LIG   0.0000
   4 C4           1.8777     1.8777     1.8777 C.2          1    LIG   0.0000
   5 N5           3.1811     1.9746     1.8173 N.2          1    LIG   0.0000
   6 O6           3.5767     2.7974     2.6924 O.2          1    LIG   0.0000
   7 C7           2.5380     3.2561     3.3473 C.2          1    LIG   0.0000
   8 C8           2.5862     4.2185     4.4311 C.ar         1    LIG   0.0000
   9 C9           3.5930     4.1442     5.3880 C.ar         1    LIG   0.0000
  10 C10          3.6109     5.0819     6.4155 C.ar         1    LIG   0.0000
  11 N11          2.6786     6.0437     6.4898 N.ar         1    LIG   1.0000
  12 O12          2.7256     6.9052     7.4633 O.3          1    LIG  -1.0000
  13 C13          1.7014     6.1280     5.5749 C.ar         1    LIG   0.0000
  14 C14          1.6267     5.2216     4.5223 C.ar         1    LIG   0.0000
  15 N15          1.4496     2.7083     2.8647 N.2          1    LIG   0.0000
  16 H            1.3576    -2.1855     1.4187 H            1    LIG   0.0000
  17 H            1.1610    -1.3995     0.0009 H            1    LIG   0.0000
  18 H            2.4939    -1.1310     0.9054 H            1    LIG   0.0000
  19 H            0.1040     1.4299     0.8887 H            1    LIG   0.0000
  20 H            1.4299     0.8887     0.1040 H            1    LIG   0.0000
  21 H            4.2911     3.4299     5.3382 H            1    LIG   0.0000
  22 H            4.3298     5.0384     7.1093 H            1    LIG   0.0000
  23 H            1.0167     6.8529     5.6506 H            1    LIG   0.0000
  24 H            0.8960     5.2899     3.8430 H            1    LIG   0.0000
@<TRIPOS>BOND
   1        1        2 1
   2        2        3 1
   3        3        4 1
   4        4        5 2
   5        5        6 1
   6        6        7 1
   7        7        8 1
   8        8        9 ar
   9        9       10 ar
  10       10       11 ar
  11       11       12 1
  12       11       13 ar
  13       13       14 ar
  14       14        8 ar
  15        7       15 2
  16       15        4 1
  17        1       16 1
  18        1       17 1
  19        1       18 1
  20        3       19 1
  21        3       20 1
  22        9       21 1
  23       10       22 1
  24       13       23 1
  25       14       24 1

@<TRIPOS>MOLECULE

  24   25
SMALL
USER_CHARGES
@<TRIPOS>ATOM
   1 C1           1.8310    -1.2197     1.2354 C.3          1    LIG   0.0000
   2 O2           0.8420    -0.2723     1.6105 O.3          1    LIG   0.0000
   3 C3           1.0000     1.0000     1.0000 C.3          1    LIG   0.0000
   4 C4           1.8777     1.8777     1.8777 C.2          1    LIG   0.0000
   5 N5           2.9223     2.5626     1.4881 N.2          1    LIG   0.0000
   6 O6           3.4080     3.1782     2.4804 O.2          1    LIG   0.0000
   7 C7           2.6910     2.9069     3.5436 C.2          1    LIG   0.0000
   8 C8           2.9363     3.4231     4.8765 C.ar         1    LIG   0.0000
   9 C9           2.9183     4.7943     5.1094 C.ar         1    LIG   0.0000
  10 C10          3.1581     5.2576     6.3991 C.ar         1    LIG   0.0000
  11 N11          3.4026     4.4049     7.4056 N.ar         1    LIG   1.0000
  12 O12          3.6216     4.8721     8.5997 O.3          1    LIG  -1.0000
  13 C13          3.4235     3.0802     7.1965 C.ar         1    LIG   0.0000
  14 C14          3.1915     2.5520     5.9306 C.ar         1    LIG   0.0000
  15 N15          1.7162     2.0972     3.2093 N.2          1    LIG   0.0000
  16 H            1.6560    -2.0867     1.7019 H            1    LIG   0.0000
  17 H            1.7989    -1.3611     0.2460 H            1    LIG   0.0000
  18 H            2.7347    -0.8784     1.4942 H            1    LIG   0.0000
  19 H            0.1040     1.4299     0.8887 H            1    LIG   0.0000
  20 H            1.4299     0.8887     0.1040 H            1    LIG   0.0000
  21 H            2.7365     5.4352     4.3637 H            1    LIG   0.0000
  22 H            3.1480     6.2413     6.5787 H            1    LIG   0.0000
  23 H            3.6085     2.4634     7.9615 H            1    LIG   0.0000
  24 H            3.2080     1.5634     5.7810 H            1    LIG   0.0000
@<TRIPOS>BOND
   1        1        2 1
   2        2        3 1
   3        3        4 1
   4        4        5 2
   5        5        6 1
   6        6        7 1
   7        7        8 1
   8        8        9 ar
   9        9       10 ar
  10       10       11 ar
  11       11       12 1
  12       11       13 ar
  13       13       14 ar
  14       14        8 ar
  15        7       15 2
  16       15        4 1
  17        1       16 1
  18        1       17 1
  19        1       18 1
  20        3       19 1
  21        3       20 1
  22        9       21 1
  23       10       22 1
  24       13       23 1
  25       14       24 1

@<TRIPOS>MOLECULE

  24   25
SMALL
USER_CHARGES
@<TRIPOS>ATOM
   1 C1           1.8310    -1.2197     1.2354 C.3          1    LIG   0.0000
   2 O2           0.8420    -0.2723     1.6105 O.3          1    LIG   0.0000
   3 C3           1.0000     1.0000     1.0000 C.3          1    LIG   0.0000
   4 C4           1.8777     1.8777     1.8777 C.2          1    LIG   0.0000
   5 N5           3.0391     1.5503     2.3836 N.2          1    LIG   0.0000
   6 O6           3.4859     2.5218     3.0588 O.2          1    LIG   0.0000
   7 C7           2.6233     3.5075     3.0106 C.2          1    LIG   0.0000
   8 C8           2.7784     4.7925     3.6649 C.ar         1    LIG   0.0000
   9 C9           3.9156     5.0598     4.4201 C.ar         1    LIG   0.0000
  10 C10          4.0339     6.3017     5.0357 C.ar         1    LIG   0.0000
  11 N11          3.0742     7.2305     4.9085 N.ar         1    LIG   1.0000
  12 O12          3.2175     8.3819     5.4966 O.3          1    LIG  -1.0000
  13 C13          1.9720     6.9874     4.1839 C.ar         1    LIG   0.0000
  14 C14          1.7922     5.7659     3.5428 C.ar         1    LIG   0.0000
  15 N15          1.6001     3.1475     2.2750 N.2          1    LIG   0.0000
  16 H            1.6560    -2.0867     1.7019 H            1    LIG   0.0000
  17 H            1.7989    -1.3611     0.2460 H            1    LIG   0.0000
  18 H            2.7347    -0.8784     1.4942 H            1    LIG   0.0000
  19 H            0.1040     1.4299     0.8887 H            1    LIG   0.0000
  20 H            1.4299     0.8887     0.1040 H            1    LIG   0.0000
  21 H            4.6347     4.3719     4.5188 H            1    LIG   0.0000
  22 H            4.8468     6.5052     5.5815 H            1    LIG   0.0000
  23 H            1.2693     7.6944     4.1034 H            1    LIG   0.0000
  24 H            0.9685     5.5908     3.0036 H            1    LIG   0.0000
@<TRIPOS>BOND
   1        1        2 1
   2        2        3 1
   3        3        4 1
   4        4        5 2
   5        5        6 1
   6        6        7 1
   7        7        8 1
   8        8        9 ar
   9        9       10 ar
  10       10       11 ar
  11       11       12 1
  12       11       13 ar
  13       13       14 ar
  14       14        8 ar
  15        7       15 2
  16       15        4 1
  17        1       16 1
  18        1       17 1
  19        1       18 1
  20        3       19 1
  21        3       20 1
  22        9       21 1
  23       10       22 1
  24       13       23 1
  25       14       24 1

@<TRIPOS>MOLECULE

  24   25
SMALL
USER_CHARGES
@<TRIPOS>ATOM
   1 C1           1.6927    -0.4868     2.7270 C.3          1    LIG   0.0000
   2 O2           0.8420    -0.2723     1.6105 O.3          1    LIG   0.0000
   3 C3           1.0000     1.0000     1.0000 C.3          1    LIG   0.0000
   4 C4           1.8777     1.8777     1.8777 C.2          1    LIG   0.0000
   5 N5           3.0391     1.5503     2.3836 N.2          1    LIG   0.0000
   6 O6           3.4859     2.5218     3.0588 O.2          1    LIG   0.0000
   7 C7           2.6233     3.5075     3.0106 C.2          1    LIG   0.0000
   8 C8           2.7784     4.7925     3.6649 C.ar         1    LIG   0.0000
   9 C9           3.3144     4.8643     4.9465 C.ar         1    LIG   0.0000
  10 C10          3.4494     6.1120     5.5469 C.ar         1    LIG   0.0000
  11 N11          3.0727     7.2304     4.9089 N.ar         1    LIG   1.0000
  12 O12          3.2139     8.3810     5.4992 O.3          1    LIG  -1.0000
  13 C13          2.5539     7.1772     3.6732 C.ar         1    LIG   0.0000
  14 C14          2.3923     5.9613     3.0169 C.ar         1    LIG   0.0000
  15 N15          1.6001     3.1475     2.2750 N.2          1    LIG   0.0000
  16 H            1.5261    -1.3985     3.1027 H            1    LIG   0.0000
  17 H            2.6472    -0.4149     2.4375 H            1    LIG   0.0000
  18 H            1.5039     0.2018     3.4271 H            1    LIG   0.0000
  19 H            0.1040     1.4299     0.8887 H            1    LIG   0.0000
  20 H            1.4299     0.8887     0.1040 H            1    LIG   0.0000
  21 H            3.5974     4.0345     5.4274 H            1    LIG   0.0000
  22 H            3.8332     6.1761     6.4681 H            1    LIG   0.0000
  23 H            2.2794     8.0237     3.2171 H            1    LIG   0.0000
  24 H            2.0054     5.9281     2.0954 H            1    LIG   0.0000
@<TRIPOS>BOND
   1        1        2 1
   2        2        3 1
   3        3        4 1
   4        4        5 2
   5        5        6 1
   6        6        7 1
   7        7        8 1
   8        8        9 ar
   9        9       10 ar
  10       10       11 ar
  11       11       12 1
  12       11       13 ar
  13       13       14 ar
  14       14        8 ar
  15        7       15 2
  16       15        4 1
  17        1       16 1
  18        1       17 1
  19        1       18 1
  20        3       19 1
  21        3       20 1
  22        9       21 1
  23       10       22 1
  24       13       23 1
  25       14       24 1

@<TRIPOS>MOLECULE

  24   25
SMALL
USER_CHARGES
@<TRIPOS>ATOM
   1 C1           1.6927    -0.4868     2.7270 C.3          1    LIG   0.0000
   2 O2           0.8420    -0.2723     1.6105 O.3          1    LIG   0.0000
   3 C3           1.0000     1.0000     1.0000 C.3          1    LIG   0.0000
   4 C4           1.8777     1.8777     1.8777 C.2          1    LIG   0.0000
   5 N5           3.0391     1.5503     2.3836 N.2          1    LIG   0.0000
   6 O6           3.4859     2.5218     3.0588 O.2          1    LIG   0.0000
   7 C7           2.6233     3.5075     3.0106 C.2          1    LIG   0.0000
   8 C8           2.7784     4.7925     3.6649 C.ar         1    LIG   0.0000
   9 C9           3.8594     5.6102     3.3525 C.ar         1    LIG   0.0000
  10 C10          3.9801     6.8365     3.9982 C.ar         1    LIG   0.0000
  11 N11          3.0752     7.2314     4.9065 N.ar         1    LIG   1.0000
  12 O12          3.2178     8.3848     5.4907 O.3          1    LIG  -1.0000
  13 C13          2.0278     6.4538     5.2186 C.ar         1    LIG   0.0000
  14 C14          1.8489     5.2162     4.6091 C.ar         1    LIG   0.0000
  15 N15          1.6001     3.1475     2.2750 N.2          1    LIG   0.0000
  16 H            1.5261    -1.3985     3.1027 H            1    LIG   0.0000
  17 H            2.6472    -0.4149     2.4375 H            1    LIG   0.0000
  18 H            1.5039     0.2018     3.4271 H            1    LIG   0.0000
  19 H            0.1040     1.4299     0.8887 H            1    LIG   0.0000
  20 H            1.4299     0.8887     0.1040 H            1    LIG   0.0000
  21 H            4.5373     5.3219     2.6762 H            1    LIG   0.0000
  22 H            4.7533     7.4328     3.7820 H            1    LIG   0.0000
  23 H            1.3660     6.7683     5.8991 H            1    LIG   0.0000
  24 H            1.0657     4.6411     4.8456 H            1    LIG   0.0000
@<TRIPOS>BOND
   1        1        2 1
   2        2        3 1
   3        3        4 1
   4        4        5 2
   5        5        6 1
   6        6        7 1
   7        7        8 1
   8        8        9 ar
   9        9       10 ar
  10       10       11 ar
  11       11       12 1
  12       11       13 ar
  13       13       14 ar
  14       14        8 ar
  15        7       15 2
  16       15        4 1
  17        1       16 1
  18        1       17 1
  19        1       18 1
  20        3       19 1
  21        3       20 1
  22        9       21 1
  23       10       22 1
  24       13       23 1
  25       14       24 1

@<TRIPOS>MOLECULE

  24   25
SMALL
USER_CHARGES
@<TRIPOS>ATOM
   1 C1           1.8310    -1.2197     1.2354 C.3          1    LIG   0.0000
   2 O2           0.8420    -0.2723     1.6105 O.3          1    LIG   0.0000
   3 C3           1.0000     1.0000     1.0000 C.3          1    LIG   0.0000
   4 C4           1.8777     1.8777     1.8777 C.2          1    LIG   0.0000
   5 N5           3.0391     1.5503     2.3836 N.2          1    LIG   0.0000
   6 O6           3.4859     2.5218     3.0588 O.2          1    LIG   0.0000
   7 C7           2.6233     3.5075     3.0106 C.2          1    LIG   0.0000
   8 C8           2.7784     4.7925     3.6649 C.ar         1    LIG   0.0000
   9 C9           2.9093     4.8615     5.0480 C.ar         1    LIG   0.0000
  10 C10          3.0557     6.1094     5.6453 C.ar         1    LIG   0.0000
  11 N11          3.0719     7.2306     4.9088 N.ar         1    LIG   1.0000
  12 O12          3.2117     8.3811     5.4995 O.3          1    LIG  -1.0000
  13 C13          2.9464     7.1802     3.5744 C.ar         1    LIG   0.0000
  14 C14          2.7969     5.9642     2.9153 C.ar         1    LIG   0.0000
  15 N15          1.6001     3.1475     2.2750 N.2          1    LIG   0.0000
  16 H            1.6560    -2.0867     1.7019 H            1    LIG   0.0000
  17 H            1.7989    -1.3611     0.2460 H            1    LIG   0.0000
  18 H            2.7347    -0.8784     1.4942 H            1    LIG   0.0000
  19 H            0.1040     1.4299     0.8887 H            1    LIG   0.0000
  20 H            1.4299     0.8887     0.1040 H            1    LIG   0.0000
  21 H            2.8984     4.0296     5.6027 H            1    LIG   0.0000
  22 H            3.1504     6.1716     6.6389 H            1    LIG   0.0000
  23 H            2.9606     8.0288     3.0456 H            1    LIG   0.0000
  24 H            2.7043     5.9329     1.9201 H            1    LIG   0.0000
@<TRIPOS>BOND
   1        1        2 1
   2        2        3 1
   3        3        4 1
   4        4        5 2
   5        5        6 1
   6        6        7 1
   7        7        8 1
   8        8        9 ar
   9        9       10 ar
  10       10       11 ar
  11       11       12 1
  12       11       13 ar
  13       13       14 ar
  14       14        8 ar
  15        7       15 2
  16       15        4 1
  17        1       16 1
  18        1       17 1
  19        1       18 1
  20        3       19 1
  21        3       20 1
  22        9       21 1
  23       10       22 1
  24       13       23 1
  25       14       24 1

