@<TRIPOS>MOLECULE
*****
 24 25 0 0 0
SMALL
USER_CHARGES

@<TRIPOS>ATOM
      1 C1          1.6927   -0.4868    2.7270 C.3     1  LIG1        0.0000
      2 O2          0.8420   -0.2723    1.6105 O.3     1  LIG1        0.0000
      3 C3          1.0000    1.0000    1.0000 C.3     1  LIG1        0.0000
      4 C4          1.8777    1.8777    1.8777 C.2     1  LIG1        0.0000
      5 N5          3.0391    1.5503    2.3836 N.2     1  LIG1        0.0000
      6 O6          3.4859    2.5218    3.0588 O.2     1  LIG1        0.0000
      7 C7          2.6233    3.5075    3.0106 C.2     1  LIG1        0.0000
      8 C8          2.7784    4.7925    3.6649 C.3     1  LIG1        0.0000
      9 C9          3.3144    4.8643    4.9465 C.3     1  LIG1        0.0000
     10 C10         3.4494    6.1120    5.5469 C.3     1  LIG1        0.0000
     11 N11         3.0727    7.2304    4.9089 N.3     1  LIG1        1.0000
     12 O12         3.2139    8.3810    5.4992 O.2     1  LIG1       -1.0000
     13 C13         2.5539    7.1772    3.6732 C.3     1  LIG1        0.0000
     14 C14         2.3923    5.9613    3.0169 C.3     1  LIG1        0.0000
     15 N15         1.6001    3.1475    2.2750 N.2     1  LIG1        0.0000
     16 H           1.5261   -1.3985    3.1027 H       1  LIG1        0.0000
     17 H           2.6472   -0.4149    2.4375 H       1  LIG1        0.0000
     18 H           1.5039    0.2018    3.4271 H       1  LIG1        0.0000
     19 H           0.1040    1.4299    0.8887 H       1  LIG1        0.0000
     20 H           1.4299    0.8887    0.1040 H       1  LIG1        0.0000
     21 H           3.5974    4.0345    5.4274 H       1  LIG1        0.0000
     22 H           3.8332    6.1761    6.4681 H       1  LIG1        0.0000
     23 H           2.2794    8.0237    3.2171 H       1  LIG1        0.0000
     24 H           2.0054    5.9281    2.0954 H       1  LIG1        0.0000
@<TRIPOS>UNITY_ATOM_ATTR
12 1
charge -1
@<TRIPOS>BOND
     1     1     2    1
     2     2     3    1
     3     3     4    1
     4     4     5    2
     5     5     6    1
     6     6     7    1
     7     7     8    1
     8     8     9   ar
     9     9    10   ar
    10    10    11   ar
    11    11    12    1
    12    11    13   ar
    13    13    14   ar
    14    14     8   ar
    15     7    15    2
    16    15     4    1
    17     1    16    1
    18     1    17    1
    19     1    18    1
    20     3    19    1
    21     3    20    1
    22     9    21    1
    23    10    22    1
    24    13    23    1
    25    14    24    1
