@<TRIPOS>MOLECULE
*****
 24 25 0 0 0
SMALL
USER_CHARGES

@<TRIPOS>ATOM
      1 C1          2.0616   -0.9704    1.8147 C.3     1  LIG1        0.0000
      2 O2          0.8420   -0.2723    1.6105 O.3     1  LIG1        0.0000
      3 C3          1.0000    1.0000    1.0000 C.3     1  LIG1        0.0000
      4 C4          1.8777    1.8777    1.8777 C.2     1  LIG1        0.0000
      5 N5          1.4676    2.6741    2.8314 N.2     1  LIG1        0.0000
      6 O6          2.4676    3.2470    3.3519 O.2     1  LIG1        0.0000
      7 C7          3.5562    2.8382    2.7470 C.2     1  LIG1        0.0000
      8 C8          4.9044    3.2720    3.0594 C.3     1  LIG1        0.0000
      9 C9          5.1235    4.1969    4.0750 C.3     1  LIG1        0.0000
     10 C10         6.4285    4.5932    4.3496 C.3     1  LIG1        0.0000
     11 N11         7.4624    4.0976    3.6532 N.3     1  LIG1        1.0000
     12 O12         8.6701    4.4890    3.9369 O.2     1  LIG1       -1.0000
     13 C13         7.2670    3.2055    2.6709 C.3     1  LIG1        0.0000
     14 C14         5.9870    2.7677    2.3463 C.3     1  LIG1        0.0000
     15 N15         3.2322    1.9734    1.8170 N.2     1  LIG1        0.0000
     16 H           1.8725   -1.8526    2.2459 H       1  LIG1        0.0000
     17 H           2.5118   -1.1194    0.9343 H       1  LIG1        0.0000
     18 H           2.6593   -0.4308    2.4077 H       1  LIG1        0.0000
     19 H           0.1040    1.4299    0.8887 H       1  LIG1        0.0000
     20 H           1.4299    0.8887    0.1040 H       1  LIG1        0.0000
     21 H           4.3573    4.5700    4.5981 H       1  LIG1        0.0000
     22 H           6.5984    5.2578    5.0773 H       1  LIG1        0.0000
     23 H           8.0527    2.8499    2.1645 H       1  LIG1        0.0000
     24 H           5.8477    2.1020    1.6132 H       1  LIG1        0.0000
@<TRIPOS>UNITY_ATOM_ATTR
12 1
charge -1
@<TRIPOS>BOND
     1     1     2    1
     2     2     3    1
     3     3     4    1
     4     4     5    2
     5     5     6    1
     6     6     7    1
     7     7     8    1
     8     8     9   ar
     9     9    10   ar
    10    10    11   ar
    11    11    12    1
    12    11    13   ar
    13    13    14   ar
    14    14     8   ar
    15     7    15    2
    16    15     4    1
    17     1    16    1
    18     1    17    1
    19     1    18    1
    20     3    19    1
    21     3    20    1
    22     9    21    1
    23    10    22    1
    24    13    23    1
    25    14    24    1
