@<TRIPOS>MOLECULE
*****
 24 25 0 0 0
SMALL
USER_CHARGES

@<TRIPOS>ATOM
      1 C1          1.5132   -1.3249    0.9339 C.3     1  LIG1        0.0000
      2 O2          0.8420   -0.2723    1.6105 O.3     1  LIG1        0.0000
      3 C3          1.0000    1.0000    1.0000 C.3     1  LIG1        0.0000
      4 C4          1.8777    1.8777    1.8777 C.2     1  LIG1        0.0000
      5 N5          3.1811    1.9746    1.8173 N.2     1  LIG1        0.0000
      6 O6          3.5767    2.7974    2.6924 O.2     1  LIG1        0.0000
      7 C7          2.5380    3.2561    3.3473 C.2     1  LIG1        0.0000
      8 C8          2.5862    4.2185    4.4311 C.3     1  LIG1        0.0000
      9 C9          3.5930    4.1442    5.3880 C.3     1  LIG1        0.0000
     10 C10         3.6109    5.0819    6.4155 C.3     1  LIG1        0.0000
     11 N11         2.6786    6.0437    6.4898 N.3     1  LIG1        1.0000
     12 O12         2.7256    6.9052    7.4633 O.2     1  LIG1       -1.0000
     13 C13         1.7014    6.1280    5.5749 C.3     1  LIG1        0.0000
     14 C14         1.6267    5.2216    4.5223 C.3     1  LIG1        0.0000
     15 N15         1.4496    2.7083    2.8647 N.2     1  LIG1        0.0000
     16 H           1.3576   -2.1855    1.4187 H       1  LIG1        0.0000
     17 H           1.1610   -1.3995    0.0009 H       1  LIG1        0.0000
     18 H           2.4939   -1.1310    0.9054 H       1  LIG1        0.0000
     19 H           0.1040    1.4299    0.8887 H       1  LIG1        0.0000
     20 H           1.4299    0.8887    0.1040 H       1  LIG1        0.0000
     21 H           4.2911    3.4299    5.3382 H       1  LIG1        0.0000
     22 H           4.3298    5.0384    7.1093 H       1  LIG1        0.0000
     23 H           1.0167    6.8529    5.6506 H       1  LIG1        0.0000
     24 H           0.8960    5.2899    3.8430 H       1  LIG1        0.0000
@<TRIPOS>UNITY_ATOM_ATTR
12 1
charge -1
@<TRIPOS>BOND
     1     1     2    1
     2     2     3    1
     3     3     4    1
     4     4     5    2
     5     5     6    1
     6     6     7    1
     7     7     8    1
     8     8     9   ar
     9     9    10   ar
    10    10    11   ar
    11    11    12    1
    12    11    13   ar
    13    13    14   ar
    14    14     8   ar
    15     7    15    2
    16    15     4    1
    17     1    16    1
    18     1    17    1
    19     1    18    1
    20     3    19    1
    21     3    20    1
    22     9    21    1
    23    10    22    1
    24    13    23    1
    25    14    24    1
