@<TRIPOS>MOLECULE
*****
 24 25 0 0 0
SMALL
USER_CHARGES

@<TRIPOS>ATOM
      1 C1          1.5132   -1.3249    0.9339 C.3     1  LIG1        0.0000
      2 O2          0.8420   -0.2723    1.6105 O.3     1  LIG1        0.0000
      3 C3          1.0000    1.0000    1.0000 C.3     1  LIG1        0.0000
      4 C4          1.8777    1.8777    1.8777 C.2     1  LIG1        0.0000
      5 N5          2.4152    1.5369    3.0209 N.2     1  LIG1        0.0000
      6 O6          3.0828    2.5116    3.4721 O.2     1  LIG1        0.0000
      7 C7          2.9945    3.5144    2.6326 C.2     1  LIG1        0.0000
      8 C8          3.6225    4.8105    2.8028 C.3     1  LIG1        0.0000
      9 C9          3.3139    5.5972    3.9077 C.3     1  LIG1        0.0000
     10 C10         3.9329    6.8359    4.0417 C.3     1  LIG1        0.0000
     11 N11         4.8127    7.2714    3.1272 N.3     1  LIG1        1.0000
     12 O12         5.3741    8.4343    3.2839 O.2     1  LIG1       -1.0000
     13 C13         5.1201    6.5244    2.0565 C.3     1  LIG1        0.0000
     14 C14         4.5365    5.2764    1.8634 C.3     1  LIG1        0.0000
     15 N15         2.2506    3.1579    1.6142 N.2     1  LIG1        0.0000
     16 H           1.3576   -2.1855    1.4187 H       1  LIG1        0.0000
     17 H           1.1610   -1.3995    0.0009 H       1  LIG1        0.0000
     18 H           2.4939   -1.1310    0.9054 H       1  LIG1        0.0000
     19 H           0.1040    1.4299    0.8887 H       1  LIG1        0.0000
     20 H           1.4299    0.8887    0.1040 H       1  LIG1        0.0000
     21 H           2.6593    5.2783    4.5931 H       1  LIG1        0.0000
     22 H           3.7189    7.4104    4.8317 H       1  LIG1        0.0000
     23 H           5.7782    6.8696    1.3873 H       1  LIG1        0.0000
     24 H           4.7701    4.7239    1.0633 H       1  LIG1        0.0000
@<TRIPOS>UNITY_ATOM_ATTR
12 1
charge -1
@<TRIPOS>BOND
     1     1     2    1
     2     2     3    1
     3     3     4    1
     4     4     5    2
     5     5     6    1
     6     6     7    1
     7     7     8    1
     8     8     9   ar
     9     9    10   ar
    10    10    11   ar
    11    11    12    1
    12    11    13   ar
    13    13    14   ar
    14    14     8   ar
    15     7    15    2
    16    15     4    1
    17     1    16    1
    18     1    17    1
    19     1    18    1
    20     3    19    1
    21     3    20    1
    22     9    21    1
    23    10    22    1
    24    13    23    1
    25    14    24    1
