@<TRIPOS>MOLECULE
*****
 24 25 0 0 0
SMALL
USER_CHARGES

@<TRIPOS>ATOM
      1 C1          2.0616   -0.9704    1.8147 C.3     1  LIG1        0.0000
      2 O2          0.8420   -0.2723    1.6105 O.3     1  LIG1        0.0000
      3 C3          1.0000    1.0000    1.0000 C.3     1  LIG1        0.0000
      4 C4          1.8777    1.8777    1.8777 C.2     1  LIG1        0.0000
      5 N5          2.2335    3.1118    1.6278 N.2     1  LIG1        0.0000
      6 O6          2.9616    3.5327    2.5722 O.2     1  LIG1        0.0000
      7 C7          3.0998    2.5799    3.4617 C.2     1  LIG1        0.0000
      8 C8          3.8680    2.6801    4.6877 C.3     1  LIG1        0.0000
      9 C9          4.5355    3.8598    5.0001 C.3     1  LIG1        0.0000
     10 C10         5.2644    3.9236    6.1834 C.3     1  LIG1        0.0000
     11 N11         5.3276    2.8718    7.0138 N.3     1  LIG1        1.0000
     12 O12         6.0174    2.9659    8.1126 O.2     1  LIG1       -1.0000
     13 C13         4.6898    1.7275    6.7261 C.3     1  LIG1        0.0000
     14 C14         3.9436    1.5983    5.5591 C.3     1  LIG1        0.0000
     15 N15         2.4312    1.5238    3.0676 N.2     1  LIG1        0.0000
     16 H           1.8725   -1.8526    2.2459 H       1  LIG1        0.0000
     17 H           2.5118   -1.1194    0.9343 H       1  LIG1        0.0000
     18 H           2.6593   -0.4308    2.4077 H       1  LIG1        0.0000
     19 H           0.1040    1.4299    0.8887 H       1  LIG1        0.0000
     20 H           1.4299    0.8887    0.1040 H       1  LIG1        0.0000
     21 H           4.4923    4.6475    4.3856 H       1  LIG1        0.0000
     22 H           5.7487    4.7663    6.4185 H       1  LIG1        0.0000
     23 H           4.7514    0.9562    7.3595 H       1  LIG1        0.0000
     24 H           3.4698    0.7428    5.3502 H       1  LIG1        0.0000
@<TRIPOS>UNITY_ATOM_ATTR
12 1
charge -1
@<TRIPOS>BOND
     1     1     2    1
     2     2     3    1
     3     3     4    1
     4     4     5    2
     5     5     6    1
     6     6     7    1
     7     7     8    1
     8     8     9   ar
     9     9    10   ar
    10    10    11   ar
    11    11    12    1
    12    11    13   ar
    13    13    14   ar
    14    14     8   ar
    15     7    15    2
    16    15     4    1
    17     1    16    1
    18     1    17    1
    19     1    18    1
    20     3    19    1
    21     3    20    1
    22     9    21    1
    23    10    22    1
    24    13    23    1
    25    14    24    1
