@<TRIPOS>MOLECULE
*****
 24 25 0 0 0
SMALL
USER_CHARGES

@<TRIPOS>ATOM
      1 C1          1.8310   -1.2197    1.2354 C.3     1  LIG1        0.0000
      2 O2          0.8420   -0.2723    1.6105 O.3     1  LIG1        0.0000
      3 C3          1.0000    1.0000    1.0000 C.3     1  LIG1        0.0000
      4 C4          1.8777    1.8777    1.8777 C.2     1  LIG1        0.0000
      5 N5          2.9223    2.5626    1.4881 N.2     1  LIG1        0.0000
      6 O6          3.4080    3.1782    2.4804 O.2     1  LIG1        0.0000
      7 C7          2.6910    2.9069    3.5436 C.2     1  LIG1        0.0000
      8 C8          2.9363    3.4231    4.8765 C.3     1  LIG1        0.0000
      9 C9          2.9183    4.7943    5.1094 C.3     1  LIG1        0.0000
     10 C10         3.1581    5.2576    6.3991 C.3     1  LIG1        0.0000
     11 N11         3.4026    4.4049    7.4056 N.3     1  LIG1        1.0000
     12 O12         3.6216    4.8721    8.5997 O.2     1  LIG1       -1.0000
     13 C13         3.4235    3.0802    7.1965 C.3     1  LIG1        0.0000
     14 C14         3.1915    2.5520    5.9306 C.3     1  LIG1        0.0000
     15 N15         1.7162    2.0972    3.2093 N.2     1  LIG1        0.0000
     16 H           1.6560   -2.0867    1.7019 H       1  LIG1        0.0000
     17 H           1.7989   -1.3611    0.2460 H       1  LIG1        0.0000
     18 H           2.7347   -0.8784    1.4942 H       1  LIG1        0.0000
     19 H           0.1040    1.4299    0.8887 H       1  LIG1        0.0000
     20 H           1.4299    0.8887    0.1040 H       1  LIG1        0.0000
     21 H           2.7365    5.4352    4.3637 H       1  LIG1        0.0000
     22 H           3.1480    6.2413    6.5787 H       1  LIG1        0.0000
     23 H           3.6085    2.4634    7.9615 H       1  LIG1        0.0000
     24 H           3.2080    1.5634    5.7810 H       1  LIG1        0.0000
@<TRIPOS>UNITY_ATOM_ATTR
12 1
charge -1
@<TRIPOS>BOND
     1     1     2    1
     2     2     3    1
     3     3     4    1
     4     4     5    2
     5     5     6    1
     6     6     7    1
     7     7     8    1
     8     8     9   ar
     9     9    10   ar
    10    10    11   ar
    11    11    12    1
    12    11    13   ar
    13    13    14   ar
    14    14     8   ar
    15     7    15    2
    16    15     4    1
    17     1    16    1
    18     1    17    1
    19     1    18    1
    20     3    19    1
    21     3    20    1
    22     9    21    1
    23    10    22    1
    24    13    23    1
    25    14    24    1
