@<TRIPOS>MOLECULE
*****
 24 25 0 0 0
SMALL
USER_CHARGES

@<TRIPOS>ATOM
      1 C1          2.0616   -0.9704    1.8147 C.3     1  LIG1        0.0000
      2 O2          0.8420   -0.2723    1.6105 O.3     1  LIG1        0.0000
      3 C3          1.0000    1.0000    1.0000 C.3     1  LIG1        0.0000
      4 C4          1.8777    1.8777    1.8777 C.2     1  LIG1        0.0000
      5 N5          3.1811    1.9746    1.8173 N.2     1  LIG1        0.0000
      6 O6          3.5767    2.7974    2.6924 O.2     1  LIG1        0.0000
      7 C7          2.5380    3.2561    3.3473 C.2     1  LIG1        0.0000
      8 C8          2.5862    4.2185    4.4311 C.3     1  LIG1        0.0000
      9 C9          3.8068    4.7334    4.8553 C.3     1  LIG1        0.0000
     10 C10         3.8191    5.6543    5.8979 C.3     1  LIG1        0.0000
     11 N11         2.6797    6.0446    6.4889 N.3     1  LIG1        1.0000
     12 O12         2.7272    6.9083    7.4604 O.2     1  LIG1       -1.0000
     13 C13         1.4952    5.5568    6.0914 C.3     1  LIG1        0.0000
     14 C14         1.4136    4.6330    5.0544 C.3     1  LIG1        0.0000
     15 N15         1.4496    2.7083    2.8647 N.2     1  LIG1        0.0000
     16 H           1.8725   -1.8526    2.2459 H       1  LIG1        0.0000
     17 H           2.5118   -1.1194    0.9343 H       1  LIG1        0.0000
     18 H           2.6593   -0.4308    2.4077 H       1  LIG1        0.0000
     19 H           0.1040    1.4299    0.8887 H       1  LIG1        0.0000
     20 H           1.4299    0.8887    0.1040 H       1  LIG1        0.0000
     21 H           4.6596    4.4469    4.4188 H       1  LIG1        0.0000
     22 H           4.6906    6.0312    6.2117 H       1  LIG1        0.0000
     23 H           0.6587    5.8615    6.5469 H       1  LIG1        0.0000
     24 H           0.5275    4.2733    4.7621 H       1  LIG1        0.0000
@<TRIPOS>UNITY_ATOM_ATTR
12 1
charge -1
@<TRIPOS>BOND
     1     1     2    1
     2     2     3    1
     3     3     4    1
     4     4     5    2
     5     5     6    1
     6     6     7    1
     7     7     8    1
     8     8     9   ar
     9     9    10   ar
    10    10    11   ar
    11    11    12    1
    12    11    13   ar
    13    13    14   ar
    14    14     8   ar
    15     7    15    2
    16    15     4    1
    17     1    16    1
    18     1    17    1
    19     1    18    1
    20     3    19    1
    21     3    20    1
    22     9    21    1
    23    10    22    1
    24    13    23    1
    25    14    24    1
