@<TRIPOS>MOLECULE

  70   74
SMALL
USER_CHARGES
@<TRIPOS>ATOM
   1 C1           1.1891     3.5660    -0.0290 C.3          1    LIG   0.0000
   2 N2           1.1880     2.0954    -0.0150 N.am         1    LIG   0.0000
   3 C3          -0.0357     1.4115    -0.0015 C.2          1    LIG   0.0000
   4 O4          -1.0961     2.0153    -0.0084 O.2          1    LIG   0.0000
   5 N5          -0.0690     0.0105     0.0215 N.am         1    LIG   0.0000
   6 C6           1.1577    -0.8001     0.0615 C.3          1    LIG   0.0000
   7 C7           1.0836    -1.8406    -1.0449 C.ar         1    LIG   0.0000
   8 C8           2.2233    -2.1406    -1.7823 C.ar         1    LIG   0.0000
   9 C9           2.1653    -3.0902    -2.7973 C.ar         1    LIG   0.0000
  10 C10          0.9582    -3.7296    -3.0593 C.ar         1    LIG   0.0000
  11 C11          0.8887    -4.7690    -4.1659 C.3          1    LIG   0.0000
  12 C12          1.2676    -4.1256    -5.4899 C.3          1    LIG   0.0000
  13 C13          1.8543    -5.9019    -3.8584 C.3          1    LIG   0.0000
  14 C14         -0.5254    -5.3190    -4.2562 C.3          1    LIG   0.0000
  15 C15         -0.1875    -3.4365    -2.3269 C.ar         1    LIG   0.0000
  16 C16         -0.1194    -2.4861    -1.3136 C.ar         1    LIG   0.0000
  17 C17          2.4231     0.0449     0.0086 C.2          1    LIG   0.0000
  18 C18          2.3855     1.3533    -0.0315 C.2          1    LIG   0.0000
  19 C19          3.8195     1.8290    -0.1219 C.3          1    LIG   0.0000
  20 N20          4.6537     0.6236    -0.0652 N.am         1    LIG   0.0000
  21 C21          6.1239     0.5683    -0.0886 C.3          1    LIG   0.0000
  22 C22          6.6555     0.6185     1.3346 C.2          1    LIG   0.0000
  23 O23          5.8925     0.6918     2.2579 O.2          1    LIG   0.0000
  24 N24          8.0058     0.5800     1.5632 N.am         1    LIG   0.0000
  25 C25          8.5198     0.6285     2.9393 C.3          1    LIG   0.0000
  26 C26          9.3579     1.8794     3.1512 C.3          1    LIG   0.0000
  27 C27          9.9435     1.8301     4.5518 C.3          1    LIG   0.0000
  28 C28         11.0016     0.7403     4.5619 C.3          1    LIG   0.0000
  29 C29         10.4528    -0.5934     4.0786 C.ar         1    LIG   0.0000
  30 C30         11.1492    -1.7416     4.4255 C.ar         1    LIG   0.0000
  31 C31         10.6750    -2.9664     3.9712 C.ar         1    LIG   0.0000
  32 C32          9.5267    -3.0376     3.1902 C.ar         1    LIG   0.0000
  33 C33          8.8421    -1.8732     2.8640 C.ar         1    LIG   0.0000
  34 C34          9.2908    -0.6340     3.3053 C.ar         1    LIG   0.0000
  35 C35          3.7771    -0.4542     0.0025 C.2          1    LIG   0.0000
  36 O36          4.1140    -1.6284     0.0484 O.2          1    LIG   0.0000
  37 H            1.1628    -1.2909     0.9328 H            1    LIG   0.0000
  38 H            7.7319     0.6876     3.5522 H            1    LIG   0.0000
  39 H            2.1322     3.8985    -0.0376 H            1    LIG   0.0000
  40 H            0.7133     3.8919    -0.8460 H            1    LIG   0.0000
  41 H            0.7227     3.9075     0.7869 H            1    LIG   0.0000
  42 H           -0.9552    -0.4528     0.0103 H            1    LIG   0.0000
  43 H            3.0850    -1.6738    -1.5830 H            1    LIG   0.0000
  44 H            2.9813    -3.3103    -3.3318 H            1    LIG   0.0000
  45 H            1.2218    -4.8095    -6.2180 H            1    LIG   0.0000
  46 H            0.6323    -3.3803    -5.6922 H            1    LIG   0.0000
  47 H            2.1979    -3.7638    -5.4305 H            1    LIG   0.0000
  48 H            1.8085    -6.5858    -4.5865 H            1    LIG   0.0000
  49 H            2.7846    -5.5400    -3.7989 H            1    LIG   0.0000
  50 H            1.6050    -6.3251    -2.9873 H            1    LIG   0.0000
  51 H           -0.5712    -6.0029    -4.9843 H            1    LIG   0.0000
  52 H           -0.7747    -5.7422    -3.3852 H            1    LIG   0.0000
  53 H           -1.1607    -4.5737    -4.4586 H            1    LIG   0.0000
  54 H           -1.0491    -3.9033    -2.5263 H            1    LIG   0.0000
  55 H           -0.9351    -2.2668    -0.7782 H            1    LIG   0.0000
  56 H            3.9701     2.3149    -0.9828 H            1    LIG   0.0000
  57 H            4.0329     2.4349     0.6445 H            1    LIG   0.0000
  58 H            6.4786     1.3480    -0.6046 H            1    LIG   0.0000
  59 H            6.4186    -0.2819    -0.5247 H            1    LIG   0.0000
  60 H            8.6416     0.5189     0.7938 H            1    LIG   0.0000
  61 H            8.7832     2.6919     3.0534 H            1    LIG   0.0000
  62 H           10.0959     1.9100     2.4771 H            1    LIG   0.0000
  63 H           10.3577     2.7111     4.7806 H            1    LIG   0.0000
  64 H            9.2263     1.6167     5.2152 H            1    LIG   0.0000
  65 H           11.7539     1.0155     3.9633 H            1    LIG   0.0000
  66 H           11.3419     0.6297     5.4957 H            1    LIG   0.0000
  67 H           11.9734    -1.6894     4.9894 H            1    LIG   0.0000
  68 H           11.1648    -3.8054     4.2084 H            1    LIG   0.0000
  69 H            9.1949    -3.9231     2.8648 H            1    LIG   0.0000
  70 H            8.0154    -1.9275     2.3040 H            1    LIG   0.0000
@<TRIPOS>BOND
   1        1        2 1
   2        2        3 am
   3        3        4 2
   4        3        5 am
   5        5        6 1
   6        6        7 1
   7        7        8 ar
   8        8        9 ar
   9        9       10 ar
  10       10       11 1
  11       11       12 1
  12       11       13 1
  13       11       14 1
  14       10       15 ar
  15       15       16 ar
  16       16        7 ar
  17        6       17 1
  18       17       18 2
  19       18        2 1
  20       18       19 1
  21       19       20 1
  22       20       21 1
  23       21       22 1
  24       22       23 2
  25       22       24 am
  26       24       25 1
  27       25       26 1
  28       26       27 1
  29       27       28 1
  30       28       29 1
  31       29       30 ar
  32       30       31 ar
  33       31       32 ar
  34       32       33 ar
  35       33       34 ar
  36       34       29 ar
  37       34       25 1
  38       20       35 am
  39       35       17 1
  40       35       36 2
  41        6       37 1
  42       25       38 1
  43        1       39 1
  44        1       40 1
  45        1       41 1
  46        5       42 1
  47        8       43 1
  48        9       44 1
  49       12       45 1
  50       12       46 1
  51       12       47 1
  52       13       48 1
  53       13       49 1
  54       13       50 1
  55       14       51 1
  56       14       52 1
  57       14       53 1
  58       15       54 1
  59       16       55 1
  60       19       56 1
  61       19       57 1
  62       21       58 1
  63       21       59 1
  64       24       60 1
  65       26       61 1
  66       26       62 1
  67       27       63 1
  68       27       64 1
  69       28       65 1
  70       28       66 1
  71       30       67 1
  72       31       68 1
  73       32       69 1
  74       33       70 1

@<TRIPOS>MOLECULE

  70   74
SMALL
USER_CHARGES
@<TRIPOS>ATOM
   1 C1           1.1891     3.5660    -0.0290 C.3          1    LIG   0.0000
   2 N2           1.1880     2.0954    -0.0150 N.am         1    LIG   0.0000
   3 C3          -0.0357     1.4115    -0.0015 C.2          1    LIG   0.0000
   4 O4          -1.0961     2.0153    -0.0084 O.2          1    LIG   0.0000
   5 N5          -0.0690     0.0105     0.0215 N.am         1    LIG   0.0000
   6 C6           1.1577    -0.8001     0.0615 C.3          1    LIG   0.0000
   7 C7           1.0836    -1.8406    -1.0449 C.ar         1    LIG   0.0000
   8 C8           2.2233    -2.1406    -1.7823 C.ar         1    LIG   0.0000
   9 C9           2.1653    -3.0902    -2.7973 C.ar         1    LIG   0.0000
  10 C10          0.9582    -3.7296    -3.0593 C.ar         1    LIG   0.0000
  11 C11          0.8887    -4.7690    -4.1659 C.3          1    LIG   0.0000
  12 C12          1.2676    -4.1256    -5.4899 C.3          1    LIG   0.0000
  13 C13          1.8543    -5.9019    -3.8584 C.3          1    LIG   0.0000
  14 C14         -0.5254    -5.3190    -4.2562 C.3          1    LIG   0.0000
  15 C15         -0.1875    -3.4365    -2.3269 C.ar         1    LIG   0.0000
  16 C16         -0.1194    -2.4861    -1.3136 C.ar         1    LIG   0.0000
  17 C17          2.4231     0.0449     0.0086 C.2          1    LIG   0.0000
  18 C18          2.3855     1.3533    -0.0315 C.2          1    LIG   0.0000
  19 C19          3.8195     1.8290    -0.1219 C.3          1    LIG   0.0000
  20 N20          4.6537     0.6236    -0.0652 N.am         1    LIG   0.0000
  21 C21          6.1239     0.5683    -0.0886 C.3          1    LIG   0.0000
  22 C22          6.6555     0.6185     1.3346 C.2          1    LIG   0.0000
  23 O23          7.8382     0.5848     1.5348 O.2          1    LIG   0.0000
  24 N24          5.7844     0.7022     2.3886 N.am         1    LIG   0.0000
  25 C25          6.2985     0.7507     3.7647 C.3          1    LIG   0.0000
  26 C26          5.8331    -0.4649     4.5505 C.3          1    LIG   0.0000
  27 C27          6.3069    -0.3157     5.9860 C.3          1    LIG   0.0000
  28 C28          5.4891     0.7968     6.6191 C.3          1    LIG   0.0000
  29 C29          5.5563     2.0850     5.8133 C.ar         1    LIG   0.0000
  30 C30          5.2310     3.2683     6.4597 C.ar         1    LIG   0.0000
  31 C31          5.2633     4.4514     5.7312 C.ar         1    LIG   0.0000
  32 C32          5.6176     4.4477     4.3866 C.ar         1    LIG   0.0000
  33 C33          5.9479     3.2498     3.7645 C.ar         1    LIG   0.0000
  34 C34          5.9267     2.0509     4.4674 C.ar         1    LIG   0.0000
  35 C35          3.7771    -0.4542     0.0025 C.2          1    LIG   0.0000
  36 O36          4.1140    -1.6284     0.0484 O.2          1    LIG   0.0000
  37 H            1.1628    -1.2909     0.9328 H            1    LIG   0.0000
  38 H            7.2964     0.7115     3.7141 H            1    LIG   0.0000
  39 H            2.1322     3.8985    -0.0376 H            1    LIG   0.0000
  40 H            0.7133     3.8919    -0.8460 H            1    LIG   0.0000
  41 H            0.7227     3.9075     0.7869 H            1    LIG   0.0000
  42 H           -0.9552    -0.4528     0.0103 H            1    LIG   0.0000
  43 H            3.0850    -1.6738    -1.5830 H            1    LIG   0.0000
  44 H            2.9813    -3.3103    -3.3318 H            1    LIG   0.0000
  45 H            1.2218    -4.8095    -6.2180 H            1    LIG   0.0000
  46 H            0.6323    -3.3803    -5.6922 H            1    LIG   0.0000
  47 H            2.1979    -3.7638    -5.4305 H            1    LIG   0.0000
  48 H            1.8085    -6.5858    -4.5865 H            1    LIG   0.0000
  49 H            2.7846    -5.5400    -3.7989 H            1    LIG   0.0000
  50 H            1.6050    -6.3251    -2.9873 H            1    LIG   0.0000
  51 H           -0.5712    -6.0029    -4.9843 H            1    LIG   0.0000
  52 H           -0.7747    -5.7422    -3.3852 H            1    LIG   0.0000
  53 H           -1.1607    -4.5737    -4.4586 H            1    LIG   0.0000
  54 H           -1.0491    -3.9033    -2.5263 H            1    LIG   0.0000
  55 H           -0.9351    -2.2668    -0.7782 H            1    LIG   0.0000
  56 H            3.9701     2.3149    -0.9828 H            1    LIG   0.0000
  57 H            4.0329     2.4349     0.6445 H            1    LIG   0.0000
  58 H            6.4786     1.3480    -0.6046 H            1    LIG   0.0000
  59 H            6.4186    -0.2819    -0.5247 H            1    LIG   0.0000
  60 H            4.7988     0.7303     2.2218 H            1    LIG   0.0000
  61 H            6.2219    -1.2950     4.1508 H            1    LIG   0.0000
  62 H            4.8349    -0.5201     4.5280 H            1    LIG   0.0000
  63 H            6.1642    -1.1710     6.4840 H            1    LIG   0.0000
  64 H            7.2782    -0.0783     6.0027 H            1    LIG   0.0000
  65 H            4.5352     0.5026     6.6780 H            1    LIG   0.0000
  66 H            5.8411     0.9727     7.5385 H            1    LIG   0.0000
  67 H            4.9790     3.2701     7.4274 H            1    LIG   0.0000
  68 H            5.0294     5.3145     6.1788 H            1    LIG   0.0000
  69 H            5.6346     5.3034     3.8695 H            1    LIG   0.0000
  70 H            6.2044     3.2503     2.7980 H            1    LIG   0.0000
@<TRIPOS>BOND
   1        1        2 1
   2        2        3 am
   3        3        4 2
   4        3        5 am
   5        5        6 1
   6        6        7 1
   7        7        8 ar
   8        8        9 ar
   9        9       10 ar
  10       10       11 1
  11       11       12 1
  12       11       13 1
  13       11       14 1
  14       10       15 ar
  15       15       16 ar
  16       16        7 ar
  17        6       17 1
  18       17       18 2
  19       18        2 1
  20       18       19 1
  21       19       20 1
  22       20       21 1
  23       21       22 1
  24       22       23 2
  25       22       24 am
  26       24       25 1
  27       25       26 1
  28       26       27 1
  29       27       28 1
  30       28       29 1
  31       29       30 ar
  32       30       31 ar
  33       31       32 ar
  34       32       33 ar
  35       33       34 ar
  36       34       29 ar
  37       34       25 1
  38       20       35 am
  39       35       17 1
  40       35       36 2
  41        6       37 1
  42       25       38 1
  43        1       39 1
  44        1       40 1
  45        1       41 1
  46        5       42 1
  47        8       43 1
  48        9       44 1
  49       12       45 1
  50       12       46 1
  51       12       47 1
  52       13       48 1
  53       13       49 1
  54       13       50 1
  55       14       51 1
  56       14       52 1
  57       14       53 1
  58       15       54 1
  59       16       55 1
  60       19       56 1
  61       19       57 1
  62       21       58 1
  63       21       59 1
  64       24       60 1
  65       26       61 1
  66       26       62 1
  67       27       63 1
  68       27       64 1
  69       28       65 1
  70       28       66 1
  71       30       67 1
  72       31       68 1
  73       32       69 1
  74       33       70 1

@<TRIPOS>MOLECULE

  70   74
SMALL
USER_CHARGES
@<TRIPOS>ATOM
   1 C1           1.1891     3.5660    -0.0290 C.3          1    LIG   0.0000
   2 N2           1.1880     2.0954    -0.0150 N.am         1    LIG   0.0000
   3 C3          -0.0357     1.4115    -0.0015 C.2          1    LIG   0.0000
   4 O4          -1.0961     2.0153    -0.0084 O.2          1    LIG   0.0000
   5 N5          -0.0690     0.0105     0.0215 N.am         1    LIG   0.0000
   6 C6           1.1577    -0.8001     0.0615 C.3          1    LIG   0.0000
   7 C7           1.0836    -1.8406    -1.0449 C.ar         1    LIG   0.0000
   8 C8           2.2233    -2.1406    -1.7823 C.ar         1    LIG   0.0000
   9 C9           2.1653    -3.0902    -2.7973 C.ar         1    LIG   0.0000
  10 C10          0.9582    -3.7296    -3.0593 C.ar         1    LIG   0.0000
  11 C11          0.8887    -4.7690    -4.1659 C.3          1    LIG   0.0000
  12 C12          1.2676    -4.1256    -5.4899 C.3          1    LIG   0.0000
  13 C13          1.8543    -5.9019    -3.8584 C.3          1    LIG   0.0000
  14 C14         -0.5254    -5.3190    -4.2562 C.3          1    LIG   0.0000
  15 C15         -0.1875    -3.4365    -2.3269 C.ar         1    LIG   0.0000
  16 C16         -0.1194    -2.4861    -1.3136 C.ar         1    LIG   0.0000
  17 C17          2.4231     0.0449     0.0086 C.2          1    LIG   0.0000
  18 C18          2.3855     1.3533    -0.0315 C.2          1    LIG   0.0000
  19 C19          3.8195     1.8290    -0.1219 C.3          1    LIG   0.0000
  20 N20          4.6537     0.6236    -0.0652 N.am         1    LIG   0.0000
  21 C21          6.1239     0.5683    -0.0886 C.3          1    LIG   0.0000
  22 C22          6.6048     0.4801    -1.5278 C.2          1    LIG   0.0000
  23 O23          5.8095     0.4654    -2.4263 O.2          1    LIG   0.0000
  24 N24          7.9462     0.4174    -1.7992 N.am         1    LIG   0.0000
  25 C25          8.4111     0.3321    -3.1909 C.3          1    LIG   0.0000
  26 C26          9.1458    -0.9778    -3.4278 C.3          1    LIG   0.0000
  27 C27          9.6887    -0.9710    -4.8464 C.3          1    LIG   0.0000
  28 C28         10.8247     0.0364    -4.8914 C.3          1    LIG   0.0000
  29 C29         10.3932     1.4068    -4.3925 C.ar         1    LIG   0.0000
  30 C30         11.1625     2.5000    -4.7627 C.ar         1    LIG   0.0000
  31 C31         10.7962     3.7564    -4.2950 C.ar         1    LIG   0.0000
  32 C32          9.6819     3.9126    -3.4781 C.ar         1    LIG   0.0000
  33 C33          8.9226     2.8025    -3.1288 C.ar         1    LIG   0.0000
  34 C34          9.2627     1.5336    -3.5828 C.ar         1    LIG   0.0000
  35 C35          3.7771    -0.4542     0.0025 C.2          1    LIG   0.0000
  36 O36          4.1140    -1.6284     0.0484 O.2          1    LIG   0.0000
  37 H            1.1628    -1.2909     0.9328 H            1    LIG   0.0000
  38 H            7.6020     0.3331    -3.7784 H            1    LIG   0.0000
  39 H            2.1322     3.8985    -0.0376 H            1    LIG   0.0000
  40 H            0.7133     3.8919    -0.8460 H            1    LIG   0.0000
  41 H            0.7227     3.9075     0.7869 H            1    LIG   0.0000
  42 H           -0.9552    -0.4528     0.0103 H            1    LIG   0.0000
  43 H            3.0850    -1.6738    -1.5830 H            1    LIG   0.0000
  44 H            2.9813    -3.3103    -3.3318 H            1    LIG   0.0000
  45 H            1.2218    -4.8095    -6.2180 H            1    LIG   0.0000
  46 H            0.6323    -3.3803    -5.6922 H            1    LIG   0.0000
  47 H            2.1979    -3.7638    -5.4305 H            1    LIG   0.0000
  48 H            1.8085    -6.5858    -4.5865 H            1    LIG   0.0000
  49 H            2.7846    -5.5400    -3.7989 H            1    LIG   0.0000
  50 H            1.6050    -6.3251    -2.9873 H            1    LIG   0.0000
  51 H           -0.5712    -6.0029    -4.9843 H            1    LIG   0.0000
  52 H           -0.7747    -5.7422    -3.3852 H            1    LIG   0.0000
  53 H           -1.1607    -4.5737    -4.4586 H            1    LIG   0.0000
  54 H           -1.0491    -3.9033    -2.5263 H            1    LIG   0.0000
  55 H           -0.9351    -2.2668    -0.7782 H            1    LIG   0.0000
  56 H            3.9701     2.3149    -0.9828 H            1    LIG   0.0000
  57 H            4.0329     2.4349     0.6445 H            1    LIG   0.0000
  58 H            6.4353    -0.2364     0.4169 H            1    LIG   0.0000
  59 H            6.4953     1.3936     0.3370 H            1    LIG   0.0000
  60 H            8.6089     0.4297    -1.0505 H            1    LIG   0.0000
  61 H            8.5152    -1.7450    -3.3109 H            1    LIG   0.0000
  62 H            9.9005    -1.0646    -2.7774 H            1    LIG   0.0000
  63 H           10.0281    -1.8803    -5.0872 H            1    LIG   0.0000
  64 H            8.9688    -0.7036    -5.4869 H            1    LIG   0.0000
  65 H           11.5728    -0.2953    -4.3167 H            1    LIG   0.0000
  66 H           11.1425     0.1222    -5.8356 H            1    LIG   0.0000
  67 H           11.9621     2.3868    -5.3525 H            1    LIG   0.0000
  68 H           11.3398     4.5565    -4.5486 H            1    LIG   0.0000
  69 H            9.4280     4.8201    -3.1433 H            1    LIG   0.0000
  70 H            8.1205     2.9181    -2.5429 H            1    LIG   0.0000
@<TRIPOS>BOND
   1        1        2 1
   2        2        3 am
   3        3        4 2
   4        3        5 am
   5        5        6 1
   6        6        7 1
   7        7        8 ar
   8        8        9 ar
   9        9       10 ar
  10       10       11 1
  11       11       12 1
  12       11       13 1
  13       11       14 1
  14       10       15 ar
  15       15       16 ar
  16       16        7 ar
  17        6       17 1
  18       17       18 2
  19       18        2 1
  20       18       19 1
  21       19       20 1
  22       20       21 1
  23       21       22 1
  24       22       23 2
  25       22       24 am
  26       24       25 1
  27       25       26 1
  28       26       27 1
  29       27       28 1
  30       28       29 1
  31       29       30 ar
  32       30       31 ar
  33       31       32 ar
  34       32       33 ar
  35       33       34 ar
  36       34       29 ar
  37       34       25 1
  38       20       35 am
  39       35       17 1
  40       35       36 2
  41        6       37 1
  42       25       38 1
  43        1       39 1
  44        1       40 1
  45        1       41 1
  46        5       42 1
  47        8       43 1
  48        9       44 1
  49       12       45 1
  50       12       46 1
  51       12       47 1
  52       13       48 1
  53       13       49 1
  54       13       50 1
  55       14       51 1
  56       14       52 1
  57       14       53 1
  58       15       54 1
  59       16       55 1
  60       19       56 1
  61       19       57 1
  62       21       58 1
  63       21       59 1
  64       24       60 1
  65       26       61 1
  66       26       62 1
  67       27       63 1
  68       27       64 1
  69       28       65 1
  70       28       66 1
  71       30       67 1
  72       31       68 1
  73       32       69 1
  74       33       70 1

@<TRIPOS>MOLECULE

  70   74
SMALL
USER_CHARGES
@<TRIPOS>ATOM
   1 C1           1.1891     3.5660    -0.0290 C.3          1    LIG   0.0000
   2 N2           1.1880     2.0954    -0.0150 N.am         1    LIG   0.0000
   3 C3          -0.0357     1.4115    -0.0015 C.2          1    LIG   0.0000
   4 O4          -1.0961     2.0153    -0.0084 O.2          1    LIG   0.0000
   5 N5          -0.0690     0.0105     0.0215 N.am         1    LIG   0.0000
   6 C6           1.1577    -0.8001     0.0615 C.3          1    LIG   0.0000
   7 C7           1.0836    -1.8406    -1.0449 C.ar         1    LIG   0.0000
   8 C8           2.2233    -2.1406    -1.7823 C.ar         1    LIG   0.0000
   9 C9           2.1653    -3.0902    -2.7973 C.ar         1    LIG   0.0000
  10 C10          0.9582    -3.7296    -3.0593 C.ar         1    LIG   0.0000
  11 C11          0.8887    -4.7690    -4.1659 C.3          1    LIG   0.0000
  12 C12          1.2676    -4.1256    -5.4899 C.3          1    LIG   0.0000
  13 C13          1.8543    -5.9019    -3.8584 C.3          1    LIG   0.0000
  14 C14         -0.5254    -5.3190    -4.2562 C.3          1    LIG   0.0000
  15 C15         -0.1875    -3.4365    -2.3269 C.ar         1    LIG   0.0000
  16 C16         -0.1194    -2.4861    -1.3136 C.ar         1    LIG   0.0000
  17 C17          2.4231     0.0449     0.0086 C.2          1    LIG   0.0000
  18 C18          2.3855     1.3533    -0.0315 C.2          1    LIG   0.0000
  19 C19          3.8195     1.8290    -0.1219 C.3          1    LIG   0.0000
  20 N20          4.6537     0.6236    -0.0652 N.am         1    LIG   0.0000
  21 C21          6.1239     0.5683    -0.0886 C.3          1    LIG   0.0000
  22 C22          6.6048     0.4801    -1.5278 C.2          1    LIG   0.0000
  23 O23          7.7797     0.4252    -1.7655 O.2          1    LIG   0.0000
  24 N24          5.6968     0.4633    -2.5536 N.am         1    LIG   0.0000
  25 C25          6.1618     0.3780    -3.9452 C.3          1    LIG   0.0000
  26 C26          5.7642     1.6261    -4.7173 C.3          1    LIG   0.0000
  27 C27          6.1797     1.4434    -6.1669 C.3          1    LIG   0.0000
  28 C28          5.2610     0.3961    -6.7724 C.3          1    LIG   0.0000
  29 C29          5.2569    -0.8944    -5.9676 C.ar         1    LIG   0.0000
  30 C30          4.8233    -2.0492    -6.6019 C.ar         1    LIG   0.0000
  31 C31          4.7899    -3.2322    -5.8734 C.ar         1    LIG   0.0000
  32 C32          5.1860    -3.2567    -4.5407 C.ar         1    LIG   0.0000
  33 C33          5.6249    -2.0877    -3.9309 C.ar         1    LIG   0.0000
  34 C34          5.6714    -0.8898    -4.6341 C.ar         1    LIG   0.0000
  35 C35          3.7771    -0.4542     0.0025 C.2          1    LIG   0.0000
  36 O36          4.1140    -1.6284     0.0484 O.2          1    LIG   0.0000
  37 H            1.1628    -1.2909     0.9328 H            1    LIG   0.0000
  38 H            7.1610     0.3421    -3.9263 H            1    LIG   0.0000
  39 H            2.1322     3.8985    -0.0376 H            1    LIG   0.0000
  40 H            0.7133     3.8919    -0.8460 H            1    LIG   0.0000
  41 H            0.7227     3.9075     0.7869 H            1    LIG   0.0000
  42 H           -0.9552    -0.4528     0.0103 H            1    LIG   0.0000
  43 H            3.0850    -1.6738    -1.5830 H            1    LIG   0.0000
  44 H            2.9813    -3.3103    -3.3318 H            1    LIG   0.0000
  45 H            1.2218    -4.8095    -6.2180 H            1    LIG   0.0000
  46 H            0.6323    -3.3803    -5.6922 H            1    LIG   0.0000
  47 H            2.1979    -3.7638    -5.4305 H            1    LIG   0.0000
  48 H            1.8085    -6.5858    -4.5865 H            1    LIG   0.0000
  49 H            2.7846    -5.5400    -3.7989 H            1    LIG   0.0000
  50 H            1.6050    -6.3251    -2.9873 H            1    LIG   0.0000
  51 H           -0.5712    -6.0029    -4.9843 H            1    LIG   0.0000
  52 H           -0.7747    -5.7422    -3.3852 H            1    LIG   0.0000
  53 H           -1.1607    -4.5737    -4.4586 H            1    LIG   0.0000
  54 H           -1.0491    -3.9033    -2.5263 H            1    LIG   0.0000
  55 H           -0.9351    -2.2668    -0.7782 H            1    LIG   0.0000
  56 H            3.9701     2.3149    -0.9828 H            1    LIG   0.0000
  57 H            4.0329     2.4349     0.6445 H            1    LIG   0.0000
  58 H            6.4353    -0.2364     0.4169 H            1    LIG   0.0000
  59 H            6.4953     1.3936     0.3370 H            1    LIG   0.0000
  60 H            4.7177     0.5090    -2.3554 H            1    LIG   0.0000
  61 H            6.2268     2.4241    -4.3311 H            1    LIG   0.0000
  62 H            4.7742     1.7560    -4.6631 H            1    LIG   0.0000
  63 H            6.0858     2.3076    -6.6611 H            1    LIG   0.0000
  64 H            7.1294     1.1338    -6.2142 H            1    LIG   0.0000
  65 H            4.3305     0.7613    -6.8013 H            1    LIG   0.0000
  66 H            5.5694     0.1954    -7.7022 H            1    LIG   0.0000
  67 H            4.5412    -2.0309    -7.5611 H            1    LIG   0.0000
  68 H            4.4777    -4.0747    -6.3123 H            1    LIG   0.0000
  69 H            5.1551    -4.1119    -4.0234 H            1    LIG   0.0000
  70 H            5.9111    -2.1087    -2.9730 H            1    LIG   0.0000
@<TRIPOS>BOND
   1        1        2 1
   2        2        3 am
   3        3        4 2
   4        3        5 am
   5        5        6 1
   6        6        7 1
   7        7        8 ar
   8        8        9 ar
   9        9       10 ar
  10       10       11 1
  11       11       12 1
  12       11       13 1
  13       11       14 1
  14       10       15 ar
  15       15       16 ar
  16       16        7 ar
  17        6       17 1
  18       17       18 2
  19       18        2 1
  20       18       19 1
  21       19       20 1
  22       20       21 1
  23       21       22 1
  24       22       23 2
  25       22       24 am
  26       24       25 1
  27       25       26 1
  28       26       27 1
  29       27       28 1
  30       28       29 1
  31       29       30 ar
  32       30       31 ar
  33       31       32 ar
  34       32       33 ar
  35       33       34 ar
  36       34       29 ar
  37       34       25 1
  38       20       35 am
  39       35       17 1
  40       35       36 2
  41        6       37 1
  42       25       38 1
  43        1       39 1
  44        1       40 1
  45        1       41 1
  46        5       42 1
  47        8       43 1
  48        9       44 1
  49       12       45 1
  50       12       46 1
  51       12       47 1
  52       13       48 1
  53       13       49 1
  54       13       50 1
  55       14       51 1
  56       14       52 1
  57       14       53 1
  58       15       54 1
  59       16       55 1
  60       19       56 1
  61       19       57 1
  62       21       58 1
  63       21       59 1
  64       24       60 1
  65       26       61 1
  66       26       62 1
  67       27       63 1
  68       27       64 1
  69       28       65 1
  70       28       66 1
  71       30       67 1
  72       31       68 1
  73       32       69 1
  74       33       70 1

@<TRIPOS>MOLECULE

  70   74
SMALL
USER_CHARGES
@<TRIPOS>ATOM
   1 C1           1.1891     3.5660    -0.0290 C.3          1    LIG   0.0000
   2 N2           1.1880     2.0954    -0.0150 N.am         1    LIG   0.0000
   3 C3          -0.0357     1.4115    -0.0015 C.2          1    LIG   0.0000
   4 O4          -1.0961     2.0153    -0.0084 O.2          1    LIG   0.0000
   5 N5          -0.0690     0.0105     0.0215 N.am         1    LIG   0.0000
   6 C6           1.1577    -0.8001     0.0615 C.3          1    LIG   0.0000
   7 C7           1.0836    -1.8406    -1.0449 C.ar         1    LIG   0.0000
   8 C8          -0.0557    -2.6273    -1.1718 C.ar         1    LIG   0.0000
   9 C9          -0.1326    -3.5827    -2.1801 C.ar         1    LIG   0.0000
  10 C10          0.9400    -3.7358    -3.0523 C.ar         1    LIG   0.0000
  11 C11          0.8615    -4.7767    -4.1569 C.3          1    LIG   0.0000
  12 C12          0.6781    -6.1547    -3.5423 C.3          1    LIG   0.0000
  13 C13         -0.3179    -4.4652    -5.0637 C.3          1    LIG   0.0000
  14 C14          2.1459    -4.7511    -4.9693 C.3          1    LIG   0.0000
  15 C15          2.0839    -2.9531    -2.9337 C.ar         1    LIG   0.0000
  16 C16          2.1512    -2.0002    -1.9228 C.ar         1    LIG   0.0000
  17 C17          2.4231     0.0449     0.0086 C.2          1    LIG   0.0000
  18 C18          2.3855     1.3533    -0.0315 C.2          1    LIG   0.0000
  19 C19          3.8195     1.8290    -0.1219 C.3          1    LIG   0.0000
  20 N20          4.6537     0.6236    -0.0652 N.am         1    LIG   0.0000
  21 C21          6.1239     0.5683    -0.0886 C.3          1    LIG   0.0000
  22 C22          6.6555     0.6185     1.3346 C.2          1    LIG   0.0000
  23 O23          5.8925     0.6918     2.2579 O.2          1    LIG   0.0000
  24 N24          8.0058     0.5800     1.5632 N.am         1    LIG   0.0000
  25 C25          8.5198     0.6285     2.9393 C.3          1    LIG   0.0000
  26 C26          9.3579     1.8794     3.1512 C.3          1    LIG   0.0000
  27 C27          9.9435     1.8301     4.5518 C.3          1    LIG   0.0000
  28 C28         11.0016     0.7403     4.5619 C.3          1    LIG   0.0000
  29 C29         10.4528    -0.5934     4.0786 C.ar         1    LIG   0.0000
  30 C30         11.1492    -1.7416     4.4255 C.ar         1    LIG   0.0000
  31 C31         10.6750    -2.9664     3.9712 C.ar         1    LIG   0.0000
  32 C32          9.5267    -3.0376     3.1902 C.ar         1    LIG   0.0000
  33 C33          8.8421    -1.8732     2.8640 C.ar         1    LIG   0.0000
  34 C34          9.2908    -0.6340     3.3053 C.ar         1    LIG   0.0000
  35 C35          3.7771    -0.4542     0.0025 C.2          1    LIG   0.0000
  36 O36          4.1140    -1.6284     0.0484 O.2          1    LIG   0.0000
  37 H            1.1628    -1.2909     0.9328 H            1    LIG   0.0000
  38 H            7.7319     0.6876     3.5522 H            1    LIG   0.0000
  39 H            2.1322     3.8985    -0.0376 H            1    LIG   0.0000
  40 H            0.7133     3.8919    -0.8460 H            1    LIG   0.0000
  41 H            0.7227     3.9075     0.7869 H            1    LIG   0.0000
  42 H           -0.9552    -0.4528     0.0103 H            1    LIG   0.0000
  43 H           -0.8198    -2.5065    -0.5382 H            1    LIG   0.0000
  44 H           -0.9488    -4.1522    -2.2767 H            1    LIG   0.0000
  45 H            0.6265    -6.8396    -4.2691 H            1    LIG   0.0000
  46 H            1.4540    -6.3596    -2.9457 H            1    LIG   0.0000
  47 H           -0.1669    -6.1715    -3.0078 H            1    LIG   0.0000
  48 H           -0.3695    -5.1501    -5.7905 H            1    LIG   0.0000
  49 H           -1.1629    -4.4820    -4.5292 H            1    LIG   0.0000
  50 H           -0.1972    -3.5586    -5.4680 H            1    LIG   0.0000
  51 H            2.0943    -5.4360    -5.6961 H            1    LIG   0.0000
  52 H            2.2666    -3.8445    -5.3736 H            1    LIG   0.0000
  53 H            2.9219    -4.9560    -4.3727 H            1    LIG   0.0000
  54 H            2.8481    -3.0741    -3.5672 H            1    LIG   0.0000
  55 H            2.9670    -1.4298    -1.8269 H            1    LIG   0.0000
  56 H            3.9701     2.3149    -0.9828 H            1    LIG   0.0000
  57 H            4.0329     2.4349     0.6445 H            1    LIG   0.0000
  58 H            6.4786     1.3480    -0.6046 H            1    LIG   0.0000
  59 H            6.4186    -0.2819    -0.5247 H            1    LIG   0.0000
  60 H            8.6416     0.5189     0.7938 H            1    LIG   0.0000
  61 H            8.7832     2.6919     3.0534 H            1    LIG   0.0000
  62 H           10.0959     1.9100     2.4771 H            1    LIG   0.0000
  63 H           10.3577     2.7111     4.7806 H            1    LIG   0.0000
  64 H            9.2263     1.6167     5.2152 H            1    LIG   0.0000
  65 H           11.7539     1.0155     3.9633 H            1    LIG   0.0000
  66 H           11.3419     0.6297     5.4957 H            1    LIG   0.0000
  67 H           11.9734    -1.6894     4.9894 H            1    LIG   0.0000
  68 H           11.1648    -3.8054     4.2084 H            1    LIG   0.0000
  69 H            9.1949    -3.9231     2.8648 H            1    LIG   0.0000
  70 H            8.0154    -1.9275     2.3040 H            1    LIG   0.0000
@<TRIPOS>BOND
   1        1        2 1
   2        2        3 am
   3        3        4 2
   4        3        5 am
   5        5        6 1
   6        6        7 1
   7        7        8 ar
   8        8        9 ar
   9        9       10 ar
  10       10       11 1
  11       11       12 1
  12       11       13 1
  13       11       14 1
  14       10       15 ar
  15       15       16 ar
  16       16        7 ar
  17        6       17 1
  18       17       18 2
  19       18        2 1
  20       18       19 1
  21       19       20 1
  22       20       21 1
  23       21       22 1
  24       22       23 2
  25       22       24 am
  26       24       25 1
  27       25       26 1
  28       26       27 1
  29       27       28 1
  30       28       29 1
  31       29       30 ar
  32       30       31 ar
  33       31       32 ar
  34       32       33 ar
  35       33       34 ar
  36       34       29 ar
  37       34       25 1
  38       20       35 am
  39       35       17 1
  40       35       36 2
  41        6       37 1
  42       25       38 1
  43        1       39 1
  44        1       40 1
  45        1       41 1
  46        5       42 1
  47        8       43 1
  48        9       44 1
  49       12       45 1
  50       12       46 1
  51       12       47 1
  52       13       48 1
  53       13       49 1
  54       13       50 1
  55       14       51 1
  56       14       52 1
  57       14       53 1
  58       15       54 1
  59       16       55 1
  60       19       56 1
  61       19       57 1
  62       21       58 1
  63       21       59 1
  64       24       60 1
  65       26       61 1
  66       26       62 1
  67       27       63 1
  68       27       64 1
  69       28       65 1
  70       28       66 1
  71       30       67 1
  72       31       68 1
  73       32       69 1
  74       33       70 1

@<TRIPOS>MOLECULE

  70   74
SMALL
USER_CHARGES
@<TRIPOS>ATOM
   1 C1           1.1891     3.5660    -0.0290 C.3          1    LIG   0.0000
   2 N2           1.1880     2.0954    -0.0150 N.am         1    LIG   0.0000
   3 C3          -0.0357     1.4115    -0.0015 C.2          1    LIG   0.0000
   4 O4          -1.0961     2.0153    -0.0084 O.2          1    LIG   0.0000
   5 N5          -0.0690     0.0105     0.0215 N.am         1    LIG   0.0000
   6 C6           1.1577    -0.8001     0.0615 C.3          1    LIG   0.0000
   7 C7           1.0836    -1.8406    -1.0449 C.ar         1    LIG   0.0000
   8 C8          -0.0557    -2.6273    -1.1718 C.ar         1    LIG   0.0000
   9 C9          -0.1326    -3.5827    -2.1801 C.ar         1    LIG   0.0000
  10 C10          0.9400    -3.7358    -3.0523 C.ar         1    LIG   0.0000
  11 C11          0.8615    -4.7767    -4.1569 C.3          1    LIG   0.0000
  12 C12          0.6781    -6.1547    -3.5423 C.3          1    LIG   0.0000
  13 C13         -0.3179    -4.4652    -5.0637 C.3          1    LIG   0.0000
  14 C14          2.1459    -4.7511    -4.9693 C.3          1    LIG   0.0000
  15 C15          2.0839    -2.9531    -2.9337 C.ar         1    LIG   0.0000
  16 C16          2.1512    -2.0002    -1.9228 C.ar         1    LIG   0.0000
  17 C17          2.4231     0.0449     0.0086 C.2          1    LIG   0.0000
  18 C18          2.3855     1.3533    -0.0315 C.2          1    LIG   0.0000
  19 C19          3.8195     1.8290    -0.1219 C.3          1    LIG   0.0000
  20 N20          4.6537     0.6236    -0.0652 N.am         1    LIG   0.0000
  21 C21          6.1239     0.5683    -0.0886 C.3          1    LIG   0.0000
  22 C22          6.6555     0.6185     1.3346 C.2          1    LIG   0.0000
  23 O23          7.8382     0.5848     1.5348 O.2          1    LIG   0.0000
  24 N24          5.7844     0.7022     2.3886 N.am         1    LIG   0.0000
  25 C25          6.2985     0.7507     3.7647 C.3          1    LIG   0.0000
  26 C26          5.8331    -0.4649     4.5505 C.3          1    LIG   0.0000
  27 C27          6.3069    -0.3157     5.9860 C.3          1    LIG   0.0000
  28 C28          5.4891     0.7968     6.6191 C.3          1    LIG   0.0000
  29 C29          5.5563     2.0850     5.8133 C.ar         1    LIG   0.0000
  30 C30          5.2310     3.2683     6.4597 C.ar         1    LIG   0.0000
  31 C31          5.2633     4.4514     5.7312 C.ar         1    LIG   0.0000
  32 C32          5.6176     4.4477     4.3866 C.ar         1    LIG   0.0000
  33 C33          5.9479     3.2498     3.7645 C.ar         1    LIG   0.0000
  34 C34          5.9267     2.0509     4.4674 C.ar         1    LIG   0.0000
  35 C35          3.7771    -0.4542     0.0025 C.2          1    LIG   0.0000
  36 O36          4.1140    -1.6284     0.0484 O.2          1    LIG   0.0000
  37 H            1.1628    -1.2909     0.9328 H            1    LIG   0.0000
  38 H            7.2964     0.7115     3.7141 H            1    LIG   0.0000
  39 H            2.1322     3.8985    -0.0376 H            1    LIG   0.0000
  40 H            0.7133     3.8919    -0.8460 H            1    LIG   0.0000
  41 H            0.7227     3.9075     0.7869 H            1    LIG   0.0000
  42 H           -0.9552    -0.4528     0.0103 H            1    LIG   0.0000
  43 H           -0.8198    -2.5065    -0.5382 H            1    LIG   0.0000
  44 H           -0.9488    -4.1522    -2.2767 H            1    LIG   0.0000
  45 H            0.6265    -6.8396    -4.2691 H            1    LIG   0.0000
  46 H            1.4540    -6.3596    -2.9457 H            1    LIG   0.0000
  47 H           -0.1669    -6.1715    -3.0078 H            1    LIG   0.0000
  48 H           -0.3695    -5.1501    -5.7905 H            1    LIG   0.0000
  49 H           -1.1629    -4.4820    -4.5292 H            1    LIG   0.0000
  50 H           -0.1972    -3.5586    -5.4680 H            1    LIG   0.0000
  51 H            2.0943    -5.4360    -5.6961 H            1    LIG   0.0000
  52 H            2.2666    -3.8445    -5.3736 H            1    LIG   0.0000
  53 H            2.9219    -4.9560    -4.3727 H            1    LIG   0.0000
  54 H            2.8481    -3.0741    -3.5672 H            1    LIG   0.0000
  55 H            2.9670    -1.4298    -1.8269 H            1    LIG   0.0000
  56 H            3.9701     2.3149    -0.9828 H            1    LIG   0.0000
  57 H            4.0329     2.4349     0.6445 H            1    LIG   0.0000
  58 H            6.4786     1.3480    -0.6046 H            1    LIG   0.0000
  59 H            6.4186    -0.2819    -0.5247 H            1    LIG   0.0000
  60 H            4.7988     0.7303     2.2218 H            1    LIG   0.0000
  61 H            6.2219    -1.2950     4.1508 H            1    LIG   0.0000
  62 H            4.8349    -0.5201     4.5280 H            1    LIG   0.0000
  63 H            6.1642    -1.1710     6.4840 H            1    LIG   0.0000
  64 H            7.2782    -0.0783     6.0027 H            1    LIG   0.0000
  65 H            4.5352     0.5026     6.6780 H            1    LIG   0.0000
  66 H            5.8411     0.9727     7.5385 H            1    LIG   0.0000
  67 H            4.9790     3.2701     7.4274 H            1    LIG   0.0000
  68 H            5.0294     5.3145     6.1788 H            1    LIG   0.0000
  69 H            5.6346     5.3034     3.8695 H            1    LIG   0.0000
  70 H            6.2044     3.2503     2.7980 H            1    LIG   0.0000
@<TRIPOS>BOND
   1        1        2 1
   2        2        3 am
   3        3        4 2
   4        3        5 am
   5        5        6 1
   6        6        7 1
   7        7        8 ar
   8        8        9 ar
   9        9       10 ar
  10       10       11 1
  11       11       12 1
  12       11       13 1
  13       11       14 1
  14       10       15 ar
  15       15       16 ar
  16       16        7 ar
  17        6       17 1
  18       17       18 2
  19       18        2 1
  20       18       19 1
  21       19       20 1
  22       20       21 1
  23       21       22 1
  24       22       23 2
  25       22       24 am
  26       24       25 1
  27       25       26 1
  28       26       27 1
  29       27       28 1
  30       28       29 1
  31       29       30 ar
  32       30       31 ar
  33       31       32 ar
  34       32       33 ar
  35       33       34 ar
  36       34       29 ar
  37       34       25 1
  38       20       35 am
  39       35       17 1
  40       35       36 2
  41        6       37 1
  42       25       38 1
  43        1       39 1
  44        1       40 1
  45        1       41 1
  46        5       42 1
  47        8       43 1
  48        9       44 1
  49       12       45 1
  50       12       46 1
  51       12       47 1
  52       13       48 1
  53       13       49 1
  54       13       50 1
  55       14       51 1
  56       14       52 1
  57       14       53 1
  58       15       54 1
  59       16       55 1
  60       19       56 1
  61       19       57 1
  62       21       58 1
  63       21       59 1
  64       24       60 1
  65       26       61 1
  66       26       62 1
  67       27       63 1
  68       27       64 1
  69       28       65 1
  70       28       66 1
  71       30       67 1
  72       31       68 1
  73       32       69 1
  74       33       70 1

@<TRIPOS>MOLECULE

  70   74
SMALL
USER_CHARGES
@<TRIPOS>ATOM
   1 C1           1.1891     3.5660    -0.0290 C.3          1    LIG   0.0000
   2 N2           1.1880     2.0954    -0.0150 N.am         1    LIG   0.0000
   3 C3          -0.0357     1.4115    -0.0015 C.2          1    LIG   0.0000
   4 O4          -1.0961     2.0153    -0.0084 O.2          1    LIG   0.0000
   5 N5          -0.0690     0.0105     0.0215 N.am         1    LIG   0.0000
   6 C6           1.1577    -0.8001     0.0615 C.3          1    LIG   0.0000
   7 C7           1.0836    -1.8406    -1.0449 C.ar         1    LIG   0.0000
   8 C8          -0.0557    -2.6273    -1.1718 C.ar         1    LIG   0.0000
   9 C9          -0.1326    -3.5827    -2.1801 C.ar         1    LIG   0.0000
  10 C10          0.9400    -3.7358    -3.0523 C.ar         1    LIG   0.0000
  11 C11          0.8615    -4.7767    -4.1569 C.3          1    LIG   0.0000
  12 C12          0.6781    -6.1547    -3.5423 C.3          1    LIG   0.0000
  13 C13         -0.3179    -4.4652    -5.0637 C.3          1    LIG   0.0000
  14 C14          2.1459    -4.7511    -4.9693 C.3          1    LIG   0.0000
  15 C15          2.0839    -2.9531    -2.9337 C.ar         1    LIG   0.0000
  16 C16          2.1512    -2.0002    -1.9228 C.ar         1    LIG   0.0000
  17 C17          2.4231     0.0449     0.0086 C.2          1    LIG   0.0000
  18 C18          2.3855     1.3533    -0.0315 C.2          1    LIG   0.0000
  19 C19          3.8195     1.8290    -0.1219 C.3          1    LIG   0.0000
  20 N20          4.6537     0.6236    -0.0652 N.am         1    LIG   0.0000
  21 C21          6.1239     0.5683    -0.0886 C.3          1    LIG   0.0000
  22 C22          6.6048     0.4801    -1.5278 C.2          1    LIG   0.0000
  23 O23          5.8095     0.4654    -2.4263 O.2          1    LIG   0.0000
  24 N24          7.9462     0.4174    -1.7992 N.am         1    LIG   0.0000
  25 C25          8.4111     0.3321    -3.1909 C.3          1    LIG   0.0000
  26 C26          9.1458    -0.9778    -3.4278 C.3          1    LIG   0.0000
  27 C27          9.6887    -0.9710    -4.8464 C.3          1    LIG   0.0000
  28 C28         10.8247     0.0364    -4.8914 C.3          1    LIG   0.0000
  29 C29         10.3932     1.4068    -4.3925 C.ar         1    LIG   0.0000
  30 C30         11.1625     2.5000    -4.7627 C.ar         1    LIG   0.0000
  31 C31         10.7962     3.7564    -4.2950 C.ar         1    LIG   0.0000
  32 C32          9.6819     3.9126    -3.4781 C.ar         1    LIG   0.0000
  33 C33          8.9226     2.8025    -3.1288 C.ar         1    LIG   0.0000
  34 C34          9.2627     1.5336    -3.5828 C.ar         1    LIG   0.0000
  35 C35          3.7771    -0.4542     0.0025 C.2          1    LIG   0.0000
  36 O36          4.1140    -1.6284     0.0484 O.2          1    LIG   0.0000
  37 H            1.1628    -1.2909     0.9328 H            1    LIG   0.0000
  38 H            7.6020     0.3331    -3.7784 H            1    LIG   0.0000
  39 H            2.1322     3.8985    -0.0376 H            1    LIG   0.0000
  40 H            0.7133     3.8919    -0.8460 H            1    LIG   0.0000
  41 H            0.7227     3.9075     0.7869 H            1    LIG   0.0000
  42 H           -0.9552    -0.4528     0.0103 H            1    LIG   0.0000
  43 H           -0.8198    -2.5065    -0.5382 H            1    LIG   0.0000
  44 H           -0.9488    -4.1522    -2.2767 H            1    LIG   0.0000
  45 H            0.6265    -6.8396    -4.2691 H            1    LIG   0.0000
  46 H            1.4540    -6.3596    -2.9457 H            1    LIG   0.0000
  47 H           -0.1669    -6.1715    -3.0078 H            1    LIG   0.0000
  48 H           -0.3695    -5.1501    -5.7905 H            1    LIG   0.0000
  49 H           -1.1629    -4.4820    -4.5292 H            1    LIG   0.0000
  50 H           -0.1972    -3.5586    -5.4680 H            1    LIG   0.0000
  51 H            2.0943    -5.4360    -5.6961 H            1    LIG   0.0000
  52 H            2.2666    -3.8445    -5.3736 H            1    LIG   0.0000
  53 H            2.9219    -4.9560    -4.3727 H            1    LIG   0.0000
  54 H            2.8481    -3.0741    -3.5672 H            1    LIG   0.0000
  55 H            2.9670    -1.4298    -1.8269 H            1    LIG   0.0000
  56 H            3.9701     2.3149    -0.9828 H            1    LIG   0.0000
  57 H            4.0329     2.4349     0.6445 H            1    LIG   0.0000
  58 H            6.4353    -0.2364     0.4169 H            1    LIG   0.0000
  59 H            6.4953     1.3936     0.3370 H            1    LIG   0.0000
  60 H            8.6089     0.4297    -1.0505 H            1    LIG   0.0000
  61 H            8.5152    -1.7450    -3.3109 H            1    LIG   0.0000
  62 H            9.9005    -1.0646    -2.7774 H            1    LIG   0.0000
  63 H           10.0281    -1.8803    -5.0872 H            1    LIG   0.0000
  64 H            8.9688    -0.7036    -5.4869 H            1    LIG   0.0000
  65 H           11.5728    -0.2953    -4.3167 H            1    LIG   0.0000
  66 H           11.1425     0.1222    -5.8356 H            1    LIG   0.0000
  67 H           11.9621     2.3868    -5.3525 H            1    LIG   0.0000
  68 H           11.3398     4.5565    -4.5486 H            1    LIG   0.0000
  69 H            9.4280     4.8201    -3.1433 H            1    LIG   0.0000
  70 H            8.1205     2.9181    -2.5429 H            1    LIG   0.0000
@<TRIPOS>BOND
   1        1        2 1
   2        2        3 am
   3        3        4 2
   4        3        5 am
   5        5        6 1
   6        6        7 1
   7        7        8 ar
   8        8        9 ar
   9        9       10 ar
  10       10       11 1
  11       11       12 1
  12       11       13 1
  13       11       14 1
  14       10       15 ar
  15       15       16 ar
  16       16        7 ar
  17        6       17 1
  18       17       18 2
  19       18        2 1
  20       18       19 1
  21       19       20 1
  22       20       21 1
  23       21       22 1
  24       22       23 2
  25       22       24 am
  26       24       25 1
  27       25       26 1
  28       26       27 1
  29       27       28 1
  30       28       29 1
  31       29       30 ar
  32       30       31 ar
  33       31       32 ar
  34       32       33 ar
  35       33       34 ar
  36       34       29 ar
  37       34       25 1
  38       20       35 am
  39       35       17 1
  40       35       36 2
  41        6       37 1
  42       25       38 1
  43        1       39 1
  44        1       40 1
  45        1       41 1
  46        5       42 1
  47        8       43 1
  48        9       44 1
  49       12       45 1
  50       12       46 1
  51       12       47 1
  52       13       48 1
  53       13       49 1
  54       13       50 1
  55       14       51 1
  56       14       52 1
  57       14       53 1
  58       15       54 1
  59       16       55 1
  60       19       56 1
  61       19       57 1
  62       21       58 1
  63       21       59 1
  64       24       60 1
  65       26       61 1
  66       26       62 1
  67       27       63 1
  68       27       64 1
  69       28       65 1
  70       28       66 1
  71       30       67 1
  72       31       68 1
  73       32       69 1
  74       33       70 1

@<TRIPOS>MOLECULE

  70   74
SMALL
USER_CHARGES
@<TRIPOS>ATOM
   1 C1           1.1891     3.5660    -0.0290 C.3          1    LIG   0.0000
   2 N2           1.1880     2.0954    -0.0150 N.am         1    LIG   0.0000
   3 C3          -0.0357     1.4115    -0.0015 C.2          1    LIG   0.0000
   4 O4          -1.0961     2.0153    -0.0084 O.2          1    LIG   0.0000
   5 N5          -0.0690     0.0105     0.0215 N.am         1    LIG   0.0000
   6 C6           1.1577    -0.8001     0.0615 C.3          1    LIG   0.0000
   7 C7           1.0836    -1.8406    -1.0449 C.ar         1    LIG   0.0000
   8 C8          -0.0557    -2.6273    -1.1718 C.ar         1    LIG   0.0000
   9 C9          -0.1326    -3.5827    -2.1801 C.ar         1    LIG   0.0000
  10 C10          0.9400    -3.7358    -3.0523 C.ar         1    LIG   0.0000
  11 C11          0.8615    -4.7767    -4.1569 C.3          1    LIG   0.0000
  12 C12          0.6781    -6.1547    -3.5423 C.3          1    LIG   0.0000
  13 C13         -0.3179    -4.4652    -5.0637 C.3          1    LIG   0.0000
  14 C14          2.1459    -4.7511    -4.9693 C.3          1    LIG   0.0000
  15 C15          2.0839    -2.9531    -2.9337 C.ar         1    LIG   0.0000
  16 C16          2.1512    -2.0002    -1.9228 C.ar         1    LIG   0.0000
  17 C17          2.4231     0.0449     0.0086 C.2          1    LIG   0.0000
  18 C18          2.3855     1.3533    -0.0315 C.2          1    LIG   0.0000
  19 C19          3.8195     1.8290    -0.1219 C.3          1    LIG   0.0000
  20 N20          4.6537     0.6236    -0.0652 N.am         1    LIG   0.0000
  21 C21          6.1239     0.5683    -0.0886 C.3          1    LIG   0.0000
  22 C22          6.6048     0.4801    -1.5278 C.2          1    LIG   0.0000
  23 O23          7.7797     0.4252    -1.7655 O.2          1    LIG   0.0000
  24 N24          5.6968     0.4633    -2.5536 N.am         1    LIG   0.0000
  25 C25          6.1618     0.3780    -3.9452 C.3          1    LIG   0.0000
  26 C26          5.7642     1.6261    -4.7173 C.3          1    LIG   0.0000
  27 C27          6.1797     1.4434    -6.1669 C.3          1    LIG   0.0000
  28 C28          5.2610     0.3961    -6.7724 C.3          1    LIG   0.0000
  29 C29          5.2569    -0.8944    -5.9676 C.ar         1    LIG   0.0000
  30 C30          4.8233    -2.0492    -6.6019 C.ar         1    LIG   0.0000
  31 C31          4.7899    -3.2322    -5.8734 C.ar         1    LIG   0.0000
  32 C32          5.1860    -3.2567    -4.5407 C.ar         1    LIG   0.0000
  33 C33          5.6249    -2.0877    -3.9309 C.ar         1    LIG   0.0000
  34 C34          5.6714    -0.8898    -4.6341 C.ar         1    LIG   0.0000
  35 C35          3.7771    -0.4542     0.0025 C.2          1    LIG   0.0000
  36 O36          4.1140    -1.6284     0.0484 O.2          1    LIG   0.0000
  37 H            1.1628    -1.2909     0.9328 H            1    LIG   0.0000
  38 H            7.1610     0.3421    -3.9263 H            1    LIG   0.0000
  39 H            2.1322     3.8985    -0.0376 H            1    LIG   0.0000
  40 H            0.7133     3.8919    -0.8460 H            1    LIG   0.0000
  41 H            0.7227     3.9075     0.7869 H            1    LIG   0.0000
  42 H           -0.9552    -0.4528     0.0103 H            1    LIG   0.0000
  43 H           -0.8198    -2.5065    -0.5382 H            1    LIG   0.0000
  44 H           -0.9488    -4.1522    -2.2767 H            1    LIG   0.0000
  45 H            0.6265    -6.8396    -4.2691 H            1    LIG   0.0000
  46 H            1.4540    -6.3596    -2.9457 H            1    LIG   0.0000
  47 H           -0.1669    -6.1715    -3.0078 H            1    LIG   0.0000
  48 H           -0.3695    -5.1501    -5.7905 H            1    LIG   0.0000
  49 H           -1.1629    -4.4820    -4.5292 H            1    LIG   0.0000
  50 H           -0.1972    -3.5586    -5.4680 H            1    LIG   0.0000
  51 H            2.0943    -5.4360    -5.6961 H            1    LIG   0.0000
  52 H            2.2666    -3.8445    -5.3736 H            1    LIG   0.0000
  53 H            2.9219    -4.9560    -4.3727 H            1    LIG   0.0000
  54 H            2.8481    -3.0741    -3.5672 H            1    LIG   0.0000
  55 H            2.9670    -1.4298    -1.8269 H            1    LIG   0.0000
  56 H            3.9701     2.3149    -0.9828 H            1    LIG   0.0000
  57 H            4.0329     2.4349     0.6445 H            1    LIG   0.0000
  58 H            6.4353    -0.2364     0.4169 H            1    LIG   0.0000
  59 H            6.4953     1.3936     0.3370 H            1    LIG   0.0000
  60 H            4.7177     0.5090    -2.3554 H            1    LIG   0.0000
  61 H            6.2268     2.4241    -4.3311 H            1    LIG   0.0000
  62 H            4.7742     1.7560    -4.6631 H            1    LIG   0.0000
  63 H            6.0858     2.3076    -6.6611 H            1    LIG   0.0000
  64 H            7.1294     1.1338    -6.2142 H            1    LIG   0.0000
  65 H            4.3305     0.7613    -6.8013 H            1    LIG   0.0000
  66 H            5.5694     0.1954    -7.7022 H            1    LIG   0.0000
  67 H            4.5412    -2.0309    -7.5611 H            1    LIG   0.0000
  68 H            4.4777    -4.0747    -6.3123 H            1    LIG   0.0000
  69 H            5.1551    -4.1119    -4.0234 H            1    LIG   0.0000
  70 H            5.9111    -2.1087    -2.9730 H            1    LIG   0.0000
@<TRIPOS>BOND
   1        1        2 1
   2        2        3 am
   3        3        4 2
   4        3        5 am
   5        5        6 1
   6        6        7 1
   7        7        8 ar
   8        8        9 ar
   9        9       10 ar
  10       10       11 1
  11       11       12 1
  12       11       13 1
  13       11       14 1
  14       10       15 ar
  15       15       16 ar
  16       16        7 ar
  17        6       17 1
  18       17       18 2
  19       18        2 1
  20       18       19 1
  21       19       20 1
  22       20       21 1
  23       21       22 1
  24       22       23 2
  25       22       24 am
  26       24       25 1
  27       25       26 1
  28       26       27 1
  29       27       28 1
  30       28       29 1
  31       29       30 ar
  32       30       31 ar
  33       31       32 ar
  34       32       33 ar
  35       33       34 ar
  36       34       29 ar
  37       34       25 1
  38       20       35 am
  39       35       17 1
  40       35       36 2
  41        6       37 1
  42       25       38 1
  43        1       39 1
  44        1       40 1
  45        1       41 1
  46        5       42 1
  47        8       43 1
  48        9       44 1
  49       12       45 1
  50       12       46 1
  51       12       47 1
  52       13       48 1
  53       13       49 1
  54       13       50 1
  55       14       51 1
  56       14       52 1
  57       14       53 1
  58       15       54 1
  59       16       55 1
  60       19       56 1
  61       19       57 1
  62       21       58 1
  63       21       59 1
  64       24       60 1
  65       26       61 1
  66       26       62 1
  67       27       63 1
  68       27       64 1
  69       28       65 1
  70       28       66 1
  71       30       67 1
  72       31       68 1
  73       32       69 1
  74       33       70 1

@<TRIPOS>MOLECULE

  70   74
SMALL
USER_CHARGES
@<TRIPOS>ATOM
   1 C1           1.1891     3.5660    -0.0290 C.3          1    LIG   0.0000
   2 N2           1.1880     2.0954    -0.0150 N.am         1    LIG   0.0000
   3 C3          -0.0357     1.4115    -0.0015 C.2          1    LIG   0.0000
   4 O4          -1.0961     2.0153    -0.0084 O.2          1    LIG   0.0000
   5 N5          -0.0690     0.0105     0.0215 N.am         1    LIG   0.0000
   6 C6           1.1577    -0.8001     0.0615 C.3          1    LIG   0.0000
   7 C7           1.0836    -1.8406    -1.0449 C.ar         1    LIG   0.0000
   8 C8          -0.0557    -2.6273    -1.1718 C.ar         1    LIG   0.0000
   9 C9          -0.1326    -3.5827    -2.1801 C.ar         1    LIG   0.0000
  10 C10          0.9400    -3.7358    -3.0523 C.ar         1    LIG   0.0000
  11 C11          0.8615    -4.7767    -4.1569 C.3          1    LIG   0.0000
  12 C12          0.9927    -4.0926    -5.5079 C.3          1    LIG   0.0000
  13 C13          1.9887    -5.7821    -3.9865 C.3          1    LIG   0.0000
  14 C14         -0.4752    -5.4963    -4.0809 C.3          1    LIG   0.0000
  15 C15          2.0839    -2.9531    -2.9337 C.ar         1    LIG   0.0000
  16 C16          2.1512    -2.0002    -1.9228 C.ar         1    LIG   0.0000
  17 C17          2.4231     0.0449     0.0086 C.2          1    LIG   0.0000
  18 C18          2.3855     1.3533    -0.0315 C.2          1    LIG   0.0000
  19 C19          3.8195     1.8290    -0.1219 C.3          1    LIG   0.0000
  20 N20          4.6537     0.6236    -0.0652 N.am         1    LIG   0.0000
  21 C21          6.1239     0.5683    -0.0886 C.3          1    LIG   0.0000
  22 C22          6.6048     0.4801    -1.5278 C.2          1    LIG   0.0000
  23 O23          7.7797     0.4252    -1.7655 O.2          1    LIG   0.0000
  24 N24          5.6968     0.4633    -2.5536 N.am         1    LIG   0.0000
  25 C25          6.1623     0.3779    -3.9468 C.3          1    LIG   0.0000
  26 C26          5.6400     1.6122    -4.6647 C.3          1    LIG   0.0000
  27 C27          4.1405     1.5319    -4.9078 C.3          1    LIG   0.0000
  28 C28          3.8880     0.4016    -5.8946 C.3          1    LIG   0.0000
  29 C29          4.5816    -0.8956    -5.4891 C.ar         1    LIG   0.0000
  30 C30          4.1128    -2.0752    -6.0608 C.ar         1    LIG   0.0000
  31 C31          4.7403    -3.2774    -5.7482 C.ar         1    LIG   0.0000
  32 C32          5.8204    -3.3037    -4.8725 C.ar         1    LIG   0.0000
  33 C33          6.2640    -2.1147    -4.3033 C.ar         1    LIG   0.0000
  34 C34          5.6515    -0.8998    -4.5965 C.ar         1    LIG   0.0000
  35 C35          3.7771    -0.4542     0.0025 C.2          1    LIG   0.0000
  36 O36          4.1140    -1.6284     0.0484 O.2          1    LIG   0.0000
  37 H            1.1628    -1.2909     0.9328 H            1    LIG   0.0000
  38 H            7.1622     0.3822    -3.9636 H            1    LIG   0.0000
  39 H            2.1322     3.8985    -0.0376 H            1    LIG   0.0000
  40 H            0.7133     3.8919    -0.8460 H            1    LIG   0.0000
  41 H            0.7227     3.9075     0.7869 H            1    LIG   0.0000
  42 H           -0.9552    -0.4528     0.0103 H            1    LIG   0.0000
  43 H           -0.8198    -2.5065    -0.5382 H            1    LIG   0.0000
  44 H           -0.9488    -4.1522    -2.2767 H            1    LIG   0.0000
  45 H            0.9410    -4.7776    -6.2347 H            1    LIG   0.0000
  46 H            0.2511    -3.4311    -5.6200 H            1    LIG   0.0000
  47 H            1.8721    -3.6192    -5.5579 H            1    LIG   0.0000
  48 H            1.9370    -6.4671    -4.7133 H            1    LIG   0.0000
  49 H            2.8681    -5.3087    -4.0365 H            1    LIG   0.0000
  50 H            1.9024    -6.2322    -3.0977 H            1    LIG   0.0000
  51 H           -0.5268    -6.1812    -4.8077 H            1    LIG   0.0000
  52 H           -0.5614    -5.9463    -3.1920 H            1    LIG   0.0000
  53 H           -1.2167    -4.8348    -4.1930 H            1    LIG   0.0000
  54 H            2.8481    -3.0741    -3.5672 H            1    LIG   0.0000
  55 H            2.9670    -1.4298    -1.8269 H            1    LIG   0.0000
  56 H            3.9701     2.3149    -0.9828 H            1    LIG   0.0000
  57 H            4.0329     2.4349     0.6445 H            1    LIG   0.0000
  58 H            6.4353    -0.2364     0.4169 H            1    LIG   0.0000
  59 H            6.4953     1.3936     0.3370 H            1    LIG   0.0000
  60 H            4.7177     0.5090    -2.3554 H            1    LIG   0.0000
  61 H            6.1066     1.6964    -5.5451 H            1    LIG   0.0000
  62 H            5.8346     2.4183    -4.1059 H            1    LIG   0.0000
  63 H            3.6662     1.3446    -4.0476 H            1    LIG   0.0000
  64 H            3.8111     2.3958    -5.2888 H            1    LIG   0.0000
  65 H            2.9032     0.2357    -5.9467 H            1    LIG   0.0000
  66 H            4.2273     0.6791    -6.7934 H            1    LIG   0.0000
  67 H            3.3346    -2.0589    -6.6886 H            1    LIG   0.0000
  68 H            4.4119    -4.1291    -6.1565 H            1    LIG   0.0000
  69 H            6.2731    -4.1682    -4.6544 H            1    LIG   0.0000
  70 H            7.0384    -2.1331    -3.6708 H            1    LIG   0.0000
@<TRIPOS>BOND
   1        1        2 1
   2        2        3 am
   3        3        4 2
   4        3        5 am
   5        5        6 1
   6        6        7 1
   7        7        8 ar
   8        8        9 ar
   9        9       10 ar
  10       10       11 1
  11       11       12 1
  12       11       13 1
  13       11       14 1
  14       10       15 ar
  15       15       16 ar
  16       16        7 ar
  17        6       17 1
  18       17       18 2
  19       18        2 1
  20       18       19 1
  21       19       20 1
  22       20       21 1
  23       21       22 1
  24       22       23 2
  25       22       24 am
  26       24       25 1
  27       25       26 1
  28       26       27 1
  29       27       28 1
  30       28       29 1
  31       29       30 ar
  32       30       31 ar
  33       31       32 ar
  34       32       33 ar
  35       33       34 ar
  36       34       29 ar
  37       34       25 1
  38       20       35 am
  39       35       17 1
  40       35       36 2
  41        6       37 1
  42       25       38 1
  43        1       39 1
  44        1       40 1
  45        1       41 1
  46        5       42 1
  47        8       43 1
  48        9       44 1
  49       12       45 1
  50       12       46 1
  51       12       47 1
  52       13       48 1
  53       13       49 1
  54       13       50 1
  55       14       51 1
  56       14       52 1
  57       14       53 1
  58       15       54 1
  59       16       55 1
  60       19       56 1
  61       19       57 1
  62       21       58 1
  63       21       59 1
  64       24       60 1
  65       26       61 1
  66       26       62 1
  67       27       63 1
  68       27       64 1
  69       28       65 1
  70       28       66 1
  71       30       67 1
  72       31       68 1
  73       32       69 1
  74       33       70 1

@<TRIPOS>MOLECULE

  70   74
SMALL
USER_CHARGES
@<TRIPOS>ATOM
   1 C1           1.1891     3.5660    -0.0290 C.3          1    LIG   0.0000
   2 N2           1.1880     2.0954    -0.0150 N.am         1    LIG   0.0000
   3 C3          -0.0357     1.4115    -0.0015 C.2          1    LIG   0.0000
   4 O4          -1.0961     2.0153    -0.0084 O.2          1    LIG   0.0000
   5 N5          -0.0690     0.0105     0.0215 N.am         1    LIG   0.0000
   6 C6           1.1577    -0.8001     0.0615 C.3          1    LIG   0.0000
   7 C7           1.0836    -1.8406    -1.0449 C.ar         1    LIG   0.0000
   8 C8           1.5357    -3.1329    -0.8031 C.ar         1    LIG   0.0000
   9 C9           1.4731    -4.0915    -1.8093 C.ar         1    LIG   0.0000
  10 C10          0.9542    -3.7386    -3.0506 C.ar         1    LIG   0.0000
  11 C11          0.8817    -4.7817    -4.1535 C.3          1    LIG   0.0000
  12 C12         -0.5653    -4.9684    -4.5799 C.3          1    LIG   0.0000
  13 C13          1.7050    -4.3182    -5.3441 C.3          1    LIG   0.0000
  14 C14          1.4328    -6.1017    -3.6394 C.3          1    LIG   0.0000
  15 C15          0.4989    -2.4484    -3.3021 C.ar         1    LIG   0.0000
  16 C16          0.5651    -1.4970    -2.2896 C.ar         1    LIG   0.0000
  17 C17          2.4231     0.0449     0.0086 C.2          1    LIG   0.0000
  18 C18          2.3855     1.3533    -0.0315 C.2          1    LIG   0.0000
  19 C19          3.8195     1.8290    -0.1219 C.3          1    LIG   0.0000
  20 N20          4.6537     0.6236    -0.0652 N.am         1    LIG   0.0000
  21 C21          6.1239     0.5683    -0.0886 C.3          1    LIG   0.0000
  22 C22          6.6555     0.6185     1.3346 C.2          1    LIG   0.0000
  23 O23          5.8925     0.6918     2.2579 O.2          1    LIG   0.0000
  24 N24          8.0058     0.5800     1.5632 N.am         1    LIG   0.0000
  25 C25          8.5208     0.6286     2.9419 C.3          1    LIG   0.0000
  26 C26          9.5087     1.7636     3.1807 C.3          1    LIG   0.0000
  27 C27         10.8275     1.6014     2.4346 C.3          1    LIG   0.0000
  28 C28         11.0384     0.2767     1.7109 C.3          1    LIG   0.0000
  29 C29         10.5176    -0.8031     2.6574 C.ar         1    LIG   0.0000
  30 C30         11.2526    -1.9408     2.9375 C.ar         1    LIG   0.0000
  31 C31         10.8066    -2.8747     3.8579 C.ar         1    LIG   0.0000
  32 C32          9.5991    -2.6903     4.5175 C.ar         1    LIG   0.0000
  33 C33          8.8354    -1.5620     4.2308 C.ar         1    LIG   0.0000
  34 C34          9.2894    -0.6369     3.2980 C.ar         1    LIG   0.0000
  35 C35          3.7771    -0.4542     0.0025 C.2          1    LIG   0.0000
  36 O36          4.1140    -1.6284     0.0484 O.2          1    LIG   0.0000
  37 H            1.1628    -1.2909     0.9328 H            1    LIG   0.0000
  38 H            7.7514     0.7296     3.5727 H            1    LIG   0.0000
  39 H            2.1322     3.8985    -0.0376 H            1    LIG   0.0000
  40 H            0.7133     3.8919    -0.8460 H            1    LIG   0.0000
  41 H            0.7227     3.9075     0.7869 H            1    LIG   0.0000
  42 H           -0.9552    -0.4528     0.0103 H            1    LIG   0.0000
  43 H            1.9060    -3.3733     0.0941 H            1    LIG   0.0000
  44 H            1.7970    -5.0227    -1.6422 H            1    LIG   0.0000
  45 H           -0.6130    -5.6548    -5.3057 H            1    LIG   0.0000
  46 H           -1.1070    -5.2733    -3.7966 H            1    LIG   0.0000
  47 H           -0.9278    -4.1000    -4.9181 H            1    LIG   0.0000
  48 H            1.6573    -5.0045    -6.0698 H            1    LIG   0.0000
  49 H            1.3425    -3.4497    -5.6823 H            1    LIG   0.0000
  50 H            2.6570    -4.1953    -5.0636 H            1    LIG   0.0000
  51 H            1.3851    -6.7881    -4.3652 H            1    LIG   0.0000
  52 H            2.3847    -5.9789    -3.3589 H            1    LIG   0.0000
  53 H            0.8911    -6.4066    -2.8561 H            1    LIG   0.0000
  54 H            0.1288    -2.2080    -4.1994 H            1    LIG   0.0000
  55 H            0.2400    -0.5661    -2.4562 H            1    LIG   0.0000
  56 H            3.9701     2.3149    -0.9828 H            1    LIG   0.0000
  57 H            4.0329     2.4349     0.6445 H            1    LIG   0.0000
  58 H            6.4786     1.3480    -0.6046 H            1    LIG   0.0000
  59 H            6.4186    -0.2819    -0.5247 H            1    LIG   0.0000
  60 H            8.6416     0.5189     0.7938 H            1    LIG   0.0000
  61 H            9.7047     1.8097     4.1602 H            1    LIG   0.0000
  62 H            9.0830     2.6189     2.8854 H            1    LIG   0.0000
  63 H           10.8839     2.3321     1.7543 H            1    LIG   0.0000
  64 H           11.5676     1.7065     3.0988 H            1    LIG   0.0000
  65 H           10.5260     0.2637     0.8523 H            1    LIG   0.0000
  66 H           12.0100     0.1345     1.5214 H            1    LIG   0.0000
  67 H           12.1220    -2.0918     2.4669 H            1    LIG   0.0000
  68 H           11.3578    -3.6870     4.0485 H            1    LIG   0.0000
  69 H            9.2819    -3.3591     5.1899 H            1    LIG   0.0000
  70 H            7.9616    -1.4173     4.6953 H            1    LIG   0.0000
@<TRIPOS>BOND
   1        1        2 1
   2        2        3 am
   3        3        4 2
   4        3        5 am
   5        5        6 1
   6        6        7 1
   7        7        8 ar
   8        8        9 ar
   9        9       10 ar
  10       10       11 1
  11       11       12 1
  12       11       13 1
  13       11       14 1
  14       10       15 ar
  15       15       16 ar
  16       16        7 ar
  17        6       17 1
  18       17       18 2
  19       18        2 1
  20       18       19 1
  21       19       20 1
  22       20       21 1
  23       21       22 1
  24       22       23 2
  25       22       24 am
  26       24       25 1
  27       25       26 1
  28       26       27 1
  29       27       28 1
  30       28       29 1
  31       29       30 ar
  32       30       31 ar
  33       31       32 ar
  34       32       33 ar
  35       33       34 ar
  36       34       29 ar
  37       34       25 1
  38       20       35 am
  39       35       17 1
  40       35       36 2
  41        6       37 1
  42       25       38 1
  43        1       39 1
  44        1       40 1
  45        1       41 1
  46        5       42 1
  47        8       43 1
  48        9       44 1
  49       12       45 1
  50       12       46 1
  51       12       47 1
  52       13       48 1
  53       13       49 1
  54       13       50 1
  55       14       51 1
  56       14       52 1
  57       14       53 1
  58       15       54 1
  59       16       55 1
  60       19       56 1
  61       19       57 1
  62       21       58 1
  63       21       59 1
  64       24       60 1
  65       26       61 1
  66       26       62 1
  67       27       63 1
  68       27       64 1
  69       28       65 1
  70       28       66 1
  71       30       67 1
  72       31       68 1
  73       32       69 1
  74       33       70 1

@<TRIPOS>MOLECULE

  70   74
SMALL
USER_CHARGES
@<TRIPOS>ATOM
   1 C1           1.1891     3.5660    -0.0290 C.3          1    LIG   0.0000
   2 N2           1.1880     2.0954    -0.0150 N.am         1    LIG   0.0000
   3 C3          -0.0357     1.4115    -0.0015 C.2          1    LIG   0.0000
   4 O4          -1.0961     2.0153    -0.0084 O.2          1    LIG   0.0000
   5 N5          -0.0690     0.0105     0.0215 N.am         1    LIG   0.0000
   6 C6           1.1577    -0.8001     0.0615 C.3          1    LIG   0.0000
   7 C7           1.0836    -1.8406    -1.0449 C.ar         1    LIG   0.0000
   8 C8           1.5357    -3.1329    -0.8031 C.ar         1    LIG   0.0000
   9 C9           1.4731    -4.0915    -1.8093 C.ar         1    LIG   0.0000
  10 C10          0.9542    -3.7386    -3.0506 C.ar         1    LIG   0.0000
  11 C11          0.8817    -4.7817    -4.1535 C.3          1    LIG   0.0000
  12 C12         -0.5653    -4.9684    -4.5799 C.3          1    LIG   0.0000
  13 C13          1.7050    -4.3182    -5.3441 C.3          1    LIG   0.0000
  14 C14          1.4328    -6.1017    -3.6394 C.3          1    LIG   0.0000
  15 C15          0.4989    -2.4484    -3.3021 C.ar         1    LIG   0.0000
  16 C16          0.5651    -1.4970    -2.2896 C.ar         1    LIG   0.0000
  17 C17          2.4231     0.0449     0.0086 C.2          1    LIG   0.0000
  18 C18          2.3855     1.3533    -0.0315 C.2          1    LIG   0.0000
  19 C19          3.8195     1.8290    -0.1219 C.3          1    LIG   0.0000
  20 N20          4.6537     0.6236    -0.0652 N.am         1    LIG   0.0000
  21 C21          6.1239     0.5683    -0.0886 C.3          1    LIG   0.0000
  22 C22          6.6555     0.6185     1.3346 C.2          1    LIG   0.0000
  23 O23          7.8382     0.5848     1.5348 O.2          1    LIG   0.0000
  24 N24          5.7844     0.7022     2.3886 N.am         1    LIG   0.0000
  25 C25          6.2995     0.7508     3.7674 C.3          1    LIG   0.0000
  26 C26          5.7359    -0.3441     4.6644 C.3          1    LIG   0.0000
  27 C27          4.2473    -0.1980     4.9561 C.3          1    LIG   0.0000
  28 C28          3.5834     1.0840     4.4673 C.3          1    LIG   0.0000
  29 C29          4.5718     2.2080     4.7724 C.ar         1    LIG   0.0000
  30 C30          4.1738     3.3775     5.3944 C.ar         1    LIG   0.0000
  31 C31          5.0919     4.3559     5.7378 C.ar         1    LIG   0.0000
  32 C32          6.4403     4.1848     5.4552 C.ar         1    LIG   0.0000
  33 C33          6.8554     3.0236     4.8088 C.ar         1    LIG   0.0000
  34 C34          5.9229     2.0533     4.4607 C.ar         1    LIG   0.0000
  35 C35          3.7771    -0.4542     0.0025 C.2          1    LIG   0.0000
  36 O36          4.1140    -1.6284     0.0484 O.2          1    LIG   0.0000
  37 H            1.1628    -1.2909     0.9328 H            1    LIG   0.0000
  38 H            7.2960     0.6713     3.7448 H            1    LIG   0.0000
  39 H            2.1322     3.8985    -0.0376 H            1    LIG   0.0000
  40 H            0.7133     3.8919    -0.8460 H            1    LIG   0.0000
  41 H            0.7227     3.9075     0.7869 H            1    LIG   0.0000
  42 H           -0.9552    -0.4528     0.0103 H            1    LIG   0.0000
  43 H            1.9060    -3.3733     0.0941 H            1    LIG   0.0000
  44 H            1.7970    -5.0227    -1.6422 H            1    LIG   0.0000
  45 H           -0.6130    -5.6548    -5.3057 H            1    LIG   0.0000
  46 H           -1.1070    -5.2733    -3.7966 H            1    LIG   0.0000
  47 H           -0.9278    -4.1000    -4.9181 H            1    LIG   0.0000
  48 H            1.6573    -5.0045    -6.0698 H            1    LIG   0.0000
  49 H            1.3425    -3.4497    -5.6823 H            1    LIG   0.0000
  50 H            2.6570    -4.1953    -5.0636 H            1    LIG   0.0000
  51 H            1.3851    -6.7881    -4.3652 H            1    LIG   0.0000
  52 H            2.3847    -5.9789    -3.3589 H            1    LIG   0.0000
  53 H            0.8911    -6.4066    -2.8561 H            1    LIG   0.0000
  54 H            0.1288    -2.2080    -4.1994 H            1    LIG   0.0000
  55 H            0.2400    -0.5661    -2.4562 H            1    LIG   0.0000
  56 H            3.9701     2.3149    -0.9828 H            1    LIG   0.0000
  57 H            4.0329     2.4349     0.6445 H            1    LIG   0.0000
  58 H            6.4786     1.3480    -0.6046 H            1    LIG   0.0000
  59 H            6.4186    -0.2819    -0.5247 H            1    LIG   0.0000
  60 H            4.7988     0.7303     2.2218 H            1    LIG   0.0000
  61 H            6.2304    -0.3250     5.5333 H            1    LIG   0.0000
  62 H            5.8838    -1.2257     4.2160 H            1    LIG   0.0000
  63 H            3.7760    -0.9678     4.5258 H            1    LIG   0.0000
  64 H            4.1257    -0.2446     5.9476 H            1    LIG   0.0000
  65 H            3.4079     1.0321     3.4842 H            1    LIG   0.0000
  66 H            2.7222     1.2367     4.9521 H            1    LIG   0.0000
  67 H            3.2054     3.5192     5.5999 H            1    LIG   0.0000
  68 H            4.7816     5.1909     6.1921 H            1    LIG   0.0000
  69 H            7.1047     4.8864     5.7125 H            1    LIG   0.0000
  70 H            7.8229     2.8878     4.5953 H            1    LIG   0.0000
@<TRIPOS>BOND
   1        1        2 1
   2        2        3 am
   3        3        4 2
   4        3        5 am
   5        5        6 1
   6        6        7 1
   7        7        8 ar
   8        8        9 ar
   9        9       10 ar
  10       10       11 1
  11       11       12 1
  12       11       13 1
  13       11       14 1
  14       10       15 ar
  15       15       16 ar
  16       16        7 ar
  17        6       17 1
  18       17       18 2
  19       18        2 1
  20       18       19 1
  21       19       20 1
  22       20       21 1
  23       21       22 1
  24       22       23 2
  25       22       24 am
  26       24       25 1
  27       25       26 1
  28       26       27 1
  29       27       28 1
  30       28       29 1
  31       29       30 ar
  32       30       31 ar
  33       31       32 ar
  34       32       33 ar
  35       33       34 ar
  36       34       29 ar
  37       34       25 1
  38       20       35 am
  39       35       17 1
  40       35       36 2
  41        6       37 1
  42       25       38 1
  43        1       39 1
  44        1       40 1
  45        1       41 1
  46        5       42 1
  47        8       43 1
  48        9       44 1
  49       12       45 1
  50       12       46 1
  51       12       47 1
  52       13       48 1
  53       13       49 1
  54       13       50 1
  55       14       51 1
  56       14       52 1
  57       14       53 1
  58       15       54 1
  59       16       55 1
  60       19       56 1
  61       19       57 1
  62       21       58 1
  63       21       59 1
  64       24       60 1
  65       26       61 1
  66       26       62 1
  67       27       63 1
  68       27       64 1
  69       28       65 1
  70       28       66 1
  71       30       67 1
  72       31       68 1
  73       32       69 1
  74       33       70 1

@<TRIPOS>MOLECULE

  70   74
SMALL
USER_CHARGES
@<TRIPOS>ATOM
   1 C1           1.1891     3.5660    -0.0290 C.3          1    LIG   0.0000
   2 N2           1.1880     2.0954    -0.0150 N.am         1    LIG   0.0000
   3 C3          -0.0357     1.4115    -0.0015 C.2          1    LIG   0.0000
   4 O4          -1.0961     2.0153    -0.0084 O.2          1    LIG   0.0000
   5 N5          -0.0690     0.0105     0.0215 N.am         1    LIG   0.0000
   6 C6           1.1577    -0.8001     0.0615 C.3          1    LIG   0.0000
   7 C7           1.0836    -1.8406    -1.0449 C.ar         1    LIG   0.0000
   8 C8           1.5357    -3.1329    -0.8031 C.ar         1    LIG   0.0000
   9 C9           1.4731    -4.0915    -1.8093 C.ar         1    LIG   0.0000
  10 C10          0.9542    -3.7386    -3.0506 C.ar         1    LIG   0.0000
  11 C11          0.8817    -4.7817    -4.1535 C.3          1    LIG   0.0000
  12 C12         -0.5653    -4.9684    -4.5799 C.3          1    LIG   0.0000
  13 C13          1.7050    -4.3182    -5.3441 C.3          1    LIG   0.0000
  14 C14          1.4328    -6.1017    -3.6394 C.3          1    LIG   0.0000
  15 C15          0.4989    -2.4484    -3.3021 C.ar         1    LIG   0.0000
  16 C16          0.5651    -1.4970    -2.2896 C.ar         1    LIG   0.0000
  17 C17          2.4231     0.0449     0.0086 C.2          1    LIG   0.0000
  18 C18          2.3855     1.3533    -0.0315 C.2          1    LIG   0.0000
  19 C19          3.8195     1.8290    -0.1219 C.3          1    LIG   0.0000
  20 N20          4.6537     0.6236    -0.0652 N.am         1    LIG   0.0000
  21 C21          6.1239     0.5683    -0.0886 C.3          1    LIG   0.0000
  22 C22          6.6048     0.4801    -1.5278 C.2          1    LIG   0.0000
  23 O23          5.8095     0.4654    -2.4263 O.2          1    LIG   0.0000
  24 N24          7.9462     0.4174    -1.7992 N.am         1    LIG   0.0000
  25 C25          8.4120     0.3320    -3.1936 C.3          1    LIG   0.0000
  26 C26          9.3039    -0.8737    -3.4622 C.3          1    LIG   0.0000
  27 C27         10.6541    -0.8119    -2.7586 C.3          1    LIG   0.0000
  28 C28         10.9868     0.4924    -2.0436 C.3          1    LIG   0.0000
  29 C29         10.5187     1.6094    -2.9744 C.ar         1    LIG   0.0000
  30 C30         11.3278     2.6891    -3.2790 C.ar         1    LIG   0.0000
  31 C31         10.9241     3.6549    -4.1859 C.ar         1    LIG   0.0000
  32 C32          9.6858     3.5624    -4.8066 C.ar         1    LIG   0.0000
  33 C33          8.8490     2.4943    -4.4944 C.ar         1    LIG   0.0000
  34 C34          9.2617     1.5366    -3.5754 C.ar         1    LIG   0.0000
  35 C35          3.7771    -0.4542     0.0025 C.2          1    LIG   0.0000
  36 O36          4.1140    -1.6284     0.0484 O.2          1    LIG   0.0000
  37 H            1.1628    -1.2909     0.9328 H            1    LIG   0.0000
  38 H            7.6176     0.2897    -3.7994 H            1    LIG   0.0000
  39 H            2.1322     3.8985    -0.0376 H            1    LIG   0.0000
  40 H            0.7133     3.8919    -0.8460 H            1    LIG   0.0000
  41 H            0.7227     3.9075     0.7869 H            1    LIG   0.0000
  42 H           -0.9552    -0.4528     0.0103 H            1    LIG   0.0000
  43 H            1.9060    -3.3733     0.0941 H            1    LIG   0.0000
  44 H            1.7970    -5.0227    -1.6422 H            1    LIG   0.0000
  45 H           -0.6130    -5.6548    -5.3057 H            1    LIG   0.0000
  46 H           -1.1070    -5.2733    -3.7966 H            1    LIG   0.0000
  47 H           -0.9278    -4.1000    -4.9181 H            1    LIG   0.0000
  48 H            1.6573    -5.0045    -6.0698 H            1    LIG   0.0000
  49 H            1.3425    -3.4497    -5.6823 H            1    LIG   0.0000
  50 H            2.6570    -4.1953    -5.0636 H            1    LIG   0.0000
  51 H            1.3851    -6.7881    -4.3652 H            1    LIG   0.0000
  52 H            2.3847    -5.9789    -3.3589 H            1    LIG   0.0000
  53 H            0.8911    -6.4066    -2.8561 H            1    LIG   0.0000
  54 H            0.1288    -2.2080    -4.1994 H            1    LIG   0.0000
  55 H            0.2400    -0.5661    -2.4562 H            1    LIG   0.0000
  56 H            3.9701     2.3149    -0.9828 H            1    LIG   0.0000
  57 H            4.0329     2.4349     0.6445 H            1    LIG   0.0000
  58 H            6.4353    -0.2364     0.4169 H            1    LIG   0.0000
  59 H            6.4953     1.3936     0.3370 H            1    LIG   0.0000
  60 H            8.6089     0.4297    -1.0505 H            1    LIG   0.0000
  61 H            9.4646    -0.9332    -4.4475 H            1    LIG   0.0000
  62 H            8.8247    -1.6950    -3.1525 H            1    LIG   0.0000
  63 H           10.6772    -1.5456    -2.0795 H            1    LIG   0.0000
  64 H           11.3628    -0.9714    -3.4459 H            1    LIG   0.0000
  65 H           10.5043     0.5428    -1.1691 H            1    LIG   0.0000
  66 H           11.9718     0.5611    -1.8852 H            1    LIG   0.0000
  67 H           12.2205     2.7739    -2.8364 H            1    LIG   0.0000
  68 H           11.5284     4.4238    -4.3949 H            1    LIG   0.0000
  69 H            9.3985     4.2540    -5.4693 H            1    LIG   0.0000
  70 H            7.9526     2.4162    -4.9307 H            1    LIG   0.0000
@<TRIPOS>BOND
   1        1        2 1
   2        2        3 am
   3        3        4 2
   4        3        5 am
   5        5        6 1
   6        6        7 1
   7        7        8 ar
   8        8        9 ar
   9        9       10 ar
  10       10       11 1
  11       11       12 1
  12       11       13 1
  13       11       14 1
  14       10       15 ar
  15       15       16 ar
  16       16        7 ar
  17        6       17 1
  18       17       18 2
  19       18        2 1
  20       18       19 1
  21       19       20 1
  22       20       21 1
  23       21       22 1
  24       22       23 2
  25       22       24 am
  26       24       25 1
  27       25       26 1
  28       26       27 1
  29       27       28 1
  30       28       29 1
  31       29       30 ar
  32       30       31 ar
  33       31       32 ar
  34       32       33 ar
  35       33       34 ar
  36       34       29 ar
  37       34       25 1
  38       20       35 am
  39       35       17 1
  40       35       36 2
  41        6       37 1
  42       25       38 1
  43        1       39 1
  44        1       40 1
  45        1       41 1
  46        5       42 1
  47        8       43 1
  48        9       44 1
  49       12       45 1
  50       12       46 1
  51       12       47 1
  52       13       48 1
  53       13       49 1
  54       13       50 1
  55       14       51 1
  56       14       52 1
  57       14       53 1
  58       15       54 1
  59       16       55 1
  60       19       56 1
  61       19       57 1
  62       21       58 1
  63       21       59 1
  64       24       60 1
  65       26       61 1
  66       26       62 1
  67       27       63 1
  68       27       64 1
  69       28       65 1
  70       28       66 1
  71       30       67 1
  72       31       68 1
  73       32       69 1
  74       33       70 1

@<TRIPOS>MOLECULE

  70   74
SMALL
USER_CHARGES
@<TRIPOS>ATOM
   1 C1           1.1891     3.5660    -0.0290 C.3          1    LIG   0.0000
   2 N2           1.1880     2.0954    -0.0150 N.am         1    LIG   0.0000
   3 C3          -0.0357     1.4115    -0.0015 C.2          1    LIG   0.0000
   4 O4          -1.0961     2.0153    -0.0084 O.2          1    LIG   0.0000
   5 N5          -0.0690     0.0105     0.0215 N.am         1    LIG   0.0000
   6 C6           1.1577    -0.8001     0.0615 C.3          1    LIG   0.0000
   7 C7           1.0836    -1.8406    -1.0449 C.ar         1    LIG   0.0000
   8 C8           0.7638    -1.4448    -2.3387 C.ar         1    LIG   0.0000
   9 C9           0.6924    -2.3894    -3.3576 C.ar         1    LIG   0.0000
  10 C10          0.9449    -3.7250    -3.0627 C.ar         1    LIG   0.0000
  11 C11          0.8699    -4.7615    -4.1717 C.3          1    LIG   0.0000
  12 C12          2.2185    -5.4476    -4.3159 C.3          1    LIG   0.0000
  13 C13         -0.1903    -5.7952    -3.8282 C.3          1    LIG   0.0000
  14 C14          0.5064    -4.0784    -5.4800 C.3          1    LIG   0.0000
  15 C15          1.2659    -4.1308    -1.7715 C.ar         1    LIG   0.0000
  16 C16          1.3355    -3.1790    -0.7596 C.ar         1    LIG   0.0000
  17 C17          2.4231     0.0449     0.0086 C.2          1    LIG   0.0000
  18 C18          2.3855     1.3533    -0.0315 C.2          1    LIG   0.0000
  19 C19          3.8195     1.8290    -0.1219 C.3          1    LIG   0.0000
  20 N20          4.6537     0.6236    -0.0652 N.am         1    LIG   0.0000
  21 C21          6.1239     0.5683    -0.0886 C.3          1    LIG   0.0000
  22 C22          6.6555     0.6185     1.3346 C.2          1    LIG   0.0000
  23 O23          5.8925     0.6918     2.2579 O.2          1    LIG   0.0000
  24 N24          8.0058     0.5800     1.5632 N.am         1    LIG   0.0000
  25 C25          8.5204     0.6286     2.9408 C.3          1    LIG   0.0000
  26 C26          9.4206     1.8503     3.0344 C.3          1    LIG   0.0000
  27 C27         10.7338     1.6422     2.2954 C.3          1    LIG   0.0000
  28 C28         11.5128     0.5581     3.0253 C.3          1    LIG   0.0000
  29 C29         10.6746    -0.6899     3.2871 C.ar         1    LIG   0.0000
  30 C30         11.3580    -1.8702     3.5664 C.ar         1    LIG   0.0000
  31 C31         10.6329    -3.0240     3.8483 C.ar         1    LIG   0.0000
  32 C32          9.2424    -3.0023     3.8480 C.ar         1    LIG   0.0000
  33 C33          8.5804    -1.8150     3.5539 C.ar         1    LIG   0.0000
  34 C34          9.2821    -0.6482     3.2649 C.ar         1    LIG   0.0000
  35 C35          3.7771    -0.4542     0.0025 C.2          1    LIG   0.0000
  36 O36          4.1140    -1.6284     0.0484 O.2          1    LIG   0.0000
  37 H            1.1628    -1.2909     0.9328 H            1    LIG   0.0000
  38 H            7.7559     0.7298     3.5774 H            1    LIG   0.0000
  39 H            2.1322     3.8985    -0.0376 H            1    LIG   0.0000
  40 H            0.7133     3.8919    -0.8460 H            1    LIG   0.0000
  41 H            0.7227     3.9075     0.7869 H            1    LIG   0.0000
  42 H           -0.9552    -0.4528     0.0103 H            1    LIG   0.0000
  43 H            0.5852    -0.4811    -2.5370 H            1    LIG   0.0000
  44 H            0.4625    -2.1115    -4.2903 H            1    LIG   0.0000
  45 H            2.1692    -6.1296    -5.0456 H            1    LIG   0.0000
  46 H            2.9160    -4.7676    -4.5419 H            1    LIG   0.0000
  47 H            2.4577    -5.8970    -3.4552 H            1    LIG   0.0000
  48 H           -0.2396    -6.4772    -4.5578 H            1    LIG   0.0000
  49 H            0.0489    -6.2446    -2.9675 H            1    LIG   0.0000
  50 H           -1.0775    -5.3438    -3.7333 H            1    LIG   0.0000
  51 H            0.4571    -4.7604    -6.2096 H            1    LIG   0.0000
  52 H           -0.3809    -3.6270    -5.3851 H            1    LIG   0.0000
  53 H            1.2039    -3.3984    -5.7059 H            1    LIG   0.0000
  54 H            1.4444    -5.0945    -1.5732 H            1    LIG   0.0000
  55 H            1.5666    -3.4565     0.1729 H            1    LIG   0.0000
  56 H            3.9701     2.3149    -0.9828 H            1    LIG   0.0000
  57 H            4.0329     2.4349     0.6445 H            1    LIG   0.0000
  58 H            6.4786     1.3480    -0.6046 H            1    LIG   0.0000
  59 H            6.4186    -0.2819    -0.5247 H            1    LIG   0.0000
  60 H            8.6416     0.5189     0.7938 H            1    LIG   0.0000
  61 H            9.6168     2.0348     3.9975 H            1    LIG   0.0000
  62 H            8.9451     2.6342     2.6351 H            1    LIG   0.0000
  63 H           10.5527     1.3558     1.3546 H            1    LIG   0.0000
  64 H           11.2592     2.4930     2.2896 H            1    LIG   0.0000
  65 H           12.3036     0.3021     2.4692 H            1    LIG   0.0000
  66 H           11.8260     0.9235     3.9018 H            1    LIG   0.0000
  67 H           12.3579    -1.8886     3.5644 H            1    LIG   0.0000
  68 H           11.1157    -3.8756     4.0528 H            1    LIG   0.0000
  69 H            8.7240    -3.8316     4.0569 H            1    LIG   0.0000
  70 H            7.5805    -1.7992     3.5501 H            1    LIG   0.0000
@<TRIPOS>BOND
   1        1        2 1
   2        2        3 am
   3        3        4 2
   4        3        5 am
   5        5        6 1
   6        6        7 1
   7        7        8 ar
   8        8        9 ar
   9        9       10 ar
  10       10       11 1
  11       11       12 1
  12       11       13 1
  13       11       14 1
  14       10       15 ar
  15       15       16 ar
  16       16        7 ar
  17        6       17 1
  18       17       18 2
  19       18        2 1
  20       18       19 1
  21       19       20 1
  22       20       21 1
  23       21       22 1
  24       22       23 2
  25       22       24 am
  26       24       25 1
  27       25       26 1
  28       26       27 1
  29       27       28 1
  30       28       29 1
  31       29       30 ar
  32       30       31 ar
  33       31       32 ar
  34       32       33 ar
  35       33       34 ar
  36       34       29 ar
  37       34       25 1
  38       20       35 am
  39       35       17 1
  40       35       36 2
  41        6       37 1
  42       25       38 1
  43        1       39 1
  44        1       40 1
  45        1       41 1
  46        5       42 1
  47        8       43 1
  48        9       44 1
  49       12       45 1
  50       12       46 1
  51       12       47 1
  52       13       48 1
  53       13       49 1
  54       13       50 1
  55       14       51 1
  56       14       52 1
  57       14       53 1
  58       15       54 1
  59       16       55 1
  60       19       56 1
  61       19       57 1
  62       21       58 1
  63       21       59 1
  64       24       60 1
  65       26       61 1
  66       26       62 1
  67       27       63 1
  68       27       64 1
  69       28       65 1
  70       28       66 1
  71       30       67 1
  72       31       68 1
  73       32       69 1
  74       33       70 1

@<TRIPOS>MOLECULE

  70   74
SMALL
USER_CHARGES
@<TRIPOS>ATOM
   1 C1           1.1891     3.5660    -0.0290 C.3          1    LIG   0.0000
   2 N2           1.1880     2.0954    -0.0150 N.am         1    LIG   0.0000
   3 C3          -0.0357     1.4115    -0.0015 C.2          1    LIG   0.0000
   4 O4          -1.0961     2.0153    -0.0084 O.2          1    LIG   0.0000
   5 N5          -0.0690     0.0105     0.0215 N.am         1    LIG   0.0000
   6 C6           1.1577    -0.8001     0.0615 C.3          1    LIG   0.0000
   7 C7           1.0836    -1.8406    -1.0449 C.ar         1    LIG   0.0000
   8 C8           0.7638    -1.4448    -2.3387 C.ar         1    LIG   0.0000
   9 C9           0.6924    -2.3894    -3.3576 C.ar         1    LIG   0.0000
  10 C10          0.9449    -3.7250    -3.0627 C.ar         1    LIG   0.0000
  11 C11          0.8699    -4.7615    -4.1717 C.3          1    LIG   0.0000
  12 C12          2.2185    -5.4476    -4.3159 C.3          1    LIG   0.0000
  13 C13         -0.1903    -5.7952    -3.8282 C.3          1    LIG   0.0000
  14 C14          0.5064    -4.0784    -5.4800 C.3          1    LIG   0.0000
  15 C15          1.2659    -4.1308    -1.7715 C.ar         1    LIG   0.0000
  16 C16          1.3355    -3.1790    -0.7596 C.ar         1    LIG   0.0000
  17 C17          2.4231     0.0449     0.0086 C.2          1    LIG   0.0000
  18 C18          2.3855     1.3533    -0.0315 C.2          1    LIG   0.0000
  19 C19          3.8195     1.8290    -0.1219 C.3          1    LIG   0.0000
  20 N20          4.6537     0.6236    -0.0652 N.am         1    LIG   0.0000
  21 C21          6.1239     0.5683    -0.0886 C.3          1    LIG   0.0000
  22 C22          6.6555     0.6185     1.3346 C.2          1    LIG   0.0000
  23 O23          7.8382     0.5848     1.5348 O.2          1    LIG   0.0000
  24 N24          5.7844     0.7022     2.3886 N.am         1    LIG   0.0000
  25 C25          6.2990     0.7508     3.7662 C.3          1    LIG   0.0000
  26 C26          5.7086    -0.4417     4.5019 C.3          1    LIG   0.0000
  27 C27          4.2279    -0.2494     4.7924 C.3          1    LIG   0.0000
  28 C28          4.0924     0.8955     5.7853 C.3          1    LIG   0.0000
  29 C29          4.8682     2.1375     5.3565 C.ar         1    LIG   0.0000
  30 C30          4.5076     3.3483     5.9414 C.ar         1    LIG   0.0000
  31 C31          5.2133     4.5003     5.6076 C.ar         1    LIG   0.0000
  32 C32          6.2640     4.4465     4.6980 C.ar         1    LIG   0.0000
  33 C33          6.5989     3.2283     4.1164 C.ar         1    LIG   0.0000
  34 C34          5.9065     2.0624     4.4304 C.ar         1    LIG   0.0000
  35 C35          3.7771    -0.4542     0.0025 C.2          1    LIG   0.0000
  36 O36          4.1140    -1.6284     0.0484 O.2          1    LIG   0.0000
  37 H            1.1628    -1.2909     0.9328 H            1    LIG   0.0000
  38 H            7.2958     0.6714     3.7513 H            1    LIG   0.0000
  39 H            2.1322     3.8985    -0.0376 H            1    LIG   0.0000
  40 H            0.7133     3.8919    -0.8460 H            1    LIG   0.0000
  41 H            0.7227     3.9075     0.7869 H            1    LIG   0.0000
  42 H           -0.9552    -0.4528     0.0103 H            1    LIG   0.0000
  43 H            0.5852    -0.4811    -2.5370 H            1    LIG   0.0000
  44 H            0.4625    -2.1115    -4.2903 H            1    LIG   0.0000
  45 H            2.1692    -6.1296    -5.0456 H            1    LIG   0.0000
  46 H            2.9160    -4.7676    -4.5419 H            1    LIG   0.0000
  47 H            2.4577    -5.8970    -3.4552 H            1    LIG   0.0000
  48 H           -0.2396    -6.4772    -4.5578 H            1    LIG   0.0000
  49 H            0.0489    -6.2446    -2.9675 H            1    LIG   0.0000
  50 H           -1.0775    -5.3438    -3.7333 H            1    LIG   0.0000
  51 H            0.4571    -4.7604    -6.2096 H            1    LIG   0.0000
  52 H           -0.3809    -3.6270    -5.3851 H            1    LIG   0.0000
  53 H            1.2039    -3.3984    -5.7059 H            1    LIG   0.0000
  54 H            1.4444    -5.0945    -1.5732 H            1    LIG   0.0000
  55 H            1.5666    -3.4565     0.1729 H            1    LIG   0.0000
  56 H            3.9701     2.3149    -0.9828 H            1    LIG   0.0000
  57 H            4.0329     2.4349     0.6445 H            1    LIG   0.0000
  58 H            6.4786     1.3480    -0.6046 H            1    LIG   0.0000
  59 H            6.4186    -0.2819    -0.5247 H            1    LIG   0.0000
  60 H            4.7988     0.7303     2.2218 H            1    LIG   0.0000
  61 H            6.1954    -0.5617     5.3671 H            1    LIG   0.0000
  62 H            5.8243    -1.2595     3.9381 H            1    LIG   0.0000
  63 H            3.7419    -0.0260     3.9475 H            1    LIG   0.0000
  64 H            3.8469    -1.0866     5.1848 H            1    LIG   0.0000
  65 H            3.1250     1.1347     5.8685 H            1    LIG   0.0000
  66 H            4.4383     0.5922     6.6733 H            1    LIG   0.0000
  67 H            3.7507     3.3896     6.5936 H            1    LIG   0.0000
  68 H            4.9630     5.3738     6.0251 H            1    LIG   0.0000
  69 H            6.7732     5.2749     4.4646 H            1    LIG   0.0000
  70 H            7.3520     3.1893     3.4596 H            1    LIG   0.0000
@<TRIPOS>BOND
   1        1        2 1
   2        2        3 am
   3        3        4 2
   4        3        5 am
   5        5        6 1
   6        6        7 1
   7        7        8 ar
   8        8        9 ar
   9        9       10 ar
  10       10       11 1
  11       11       12 1
  12       11       13 1
  13       11       14 1
  14       10       15 ar
  15       15       16 ar
  16       16        7 ar
  17        6       17 1
  18       17       18 2
  19       18        2 1
  20       18       19 1
  21       19       20 1
  22       20       21 1
  23       21       22 1
  24       22       23 2
  25       22       24 am
  26       24       25 1
  27       25       26 1
  28       26       27 1
  29       27       28 1
  30       28       29 1
  31       29       30 ar
  32       30       31 ar
  33       31       32 ar
  34       32       33 ar
  35       33       34 ar
  36       34       29 ar
  37       34       25 1
  38       20       35 am
  39       35       17 1
  40       35       36 2
  41        6       37 1
  42       25       38 1
  43        1       39 1
  44        1       40 1
  45        1       41 1
  46        5       42 1
  47        8       43 1
  48        9       44 1
  49       12       45 1
  50       12       46 1
  51       12       47 1
  52       13       48 1
  53       13       49 1
  54       13       50 1
  55       14       51 1
  56       14       52 1
  57       14       53 1
  58       15       54 1
  59       16       55 1
  60       19       56 1
  61       19       57 1
  62       21       58 1
  63       21       59 1
  64       24       60 1
  65       26       61 1
  66       26       62 1
  67       27       63 1
  68       27       64 1
  69       28       65 1
  70       28       66 1
  71       30       67 1
  72       31       68 1
  73       32       69 1
  74       33       70 1

@<TRIPOS>MOLECULE

  70   74
SMALL
USER_CHARGES
@<TRIPOS>ATOM
   1 C1           1.1891     3.5660    -0.0290 C.3          1    LIG   0.0000
   2 N2           1.1880     2.0954    -0.0150 N.am         1    LIG   0.0000
   3 C3          -0.0357     1.4115    -0.0015 C.2          1    LIG   0.0000
   4 O4          -1.0961     2.0153    -0.0084 O.2          1    LIG   0.0000
   5 N5          -0.0690     0.0105     0.0215 N.am         1    LIG   0.0000
   6 C6           1.1577    -0.8001     0.0615 C.3          1    LIG   0.0000
   7 C7           1.0836    -1.8406    -1.0449 C.ar         1    LIG   0.0000
   8 C8           0.7638    -1.4448    -2.3387 C.ar         1    LIG   0.0000
   9 C9           0.6924    -2.3894    -3.3576 C.ar         1    LIG   0.0000
  10 C10          0.9449    -3.7250    -3.0627 C.ar         1    LIG   0.0000
  11 C11          0.8699    -4.7615    -4.1717 C.3          1    LIG   0.0000
  12 C12          2.2185    -5.4476    -4.3159 C.3          1    LIG   0.0000
  13 C13         -0.1903    -5.7952    -3.8282 C.3          1    LIG   0.0000
  14 C14          0.5064    -4.0784    -5.4800 C.3          1    LIG   0.0000
  15 C15          1.2659    -4.1308    -1.7715 C.ar         1    LIG   0.0000
  16 C16          1.3355    -3.1790    -0.7596 C.ar         1    LIG   0.0000
  17 C17          2.4231     0.0449     0.0086 C.2          1    LIG   0.0000
  18 C18          2.3855     1.3533    -0.0315 C.2          1    LIG   0.0000
  19 C19          3.8195     1.8290    -0.1219 C.3          1    LIG   0.0000
  20 N20          4.6537     0.6236    -0.0652 N.am         1    LIG   0.0000
  21 C21          6.1239     0.5683    -0.0886 C.3          1    LIG   0.0000
  22 C22          6.6048     0.4801    -1.5278 C.2          1    LIG   0.0000
  23 O23          5.8095     0.4654    -2.4263 O.2          1    LIG   0.0000
  24 N24          7.9462     0.4174    -1.7992 N.am         1    LIG   0.0000
  25 C25          8.4116     0.3320    -3.1924 C.3          1    LIG   0.0000
  26 C26          9.2142    -0.9537    -3.3132 C.3          1    LIG   0.0000
  27 C27         10.5621    -0.8456    -2.6165 C.3          1    LIG   0.0000
  28 C28         11.3968     0.1778    -3.3720 C.3          1    LIG   0.0000
  29 C29         10.6467     1.4855    -3.6086 C.ar         1    LIG   0.0000
  30 C30         11.4075     2.6115    -3.9108 C.ar         1    LIG   0.0000
  31 C31         10.7625     3.8168    -4.1710 C.ar         1    LIG   0.0000
  32 C32          9.3750     3.8996    -4.1264 C.ar         1    LIG   0.0000
  33 C33          8.6354     2.7649    -3.8101 C.ar         1    LIG   0.0000
  34 C34          9.2564     1.5484    -3.5421 C.ar         1    LIG   0.0000
  35 C35          3.7771    -0.4542     0.0025 C.2          1    LIG   0.0000
  36 O36          4.1140    -1.6284     0.0484 O.2          1    LIG   0.0000
  37 H            1.1628    -1.2909     0.9328 H            1    LIG   0.0000
  38 H            7.6219     0.2892    -3.8043 H            1    LIG   0.0000
  39 H            2.1322     3.8985    -0.0376 H            1    LIG   0.0000
  40 H            0.7133     3.8919    -0.8460 H            1    LIG   0.0000
  41 H            0.7227     3.9075     0.7869 H            1    LIG   0.0000
  42 H           -0.9552    -0.4528     0.0103 H            1    LIG   0.0000
  43 H            0.5852    -0.4811    -2.5370 H            1    LIG   0.0000
  44 H            0.4625    -2.1115    -4.2903 H            1    LIG   0.0000
  45 H            2.1692    -6.1296    -5.0456 H            1    LIG   0.0000
  46 H            2.9160    -4.7676    -4.5419 H            1    LIG   0.0000
  47 H            2.4577    -5.8970    -3.4552 H            1    LIG   0.0000
  48 H           -0.2396    -6.4772    -4.5578 H            1    LIG   0.0000
  49 H            0.0489    -6.2446    -2.9675 H            1    LIG   0.0000
  50 H           -1.0775    -5.3438    -3.7333 H            1    LIG   0.0000
  51 H            0.4571    -4.7604    -6.2096 H            1    LIG   0.0000
  52 H           -0.3809    -3.6270    -5.3851 H            1    LIG   0.0000
  53 H            1.2039    -3.3984    -5.7059 H            1    LIG   0.0000
  54 H            1.4444    -5.0945    -1.5732 H            1    LIG   0.0000
  55 H            1.5666    -3.4565     0.1729 H            1    LIG   0.0000
  56 H            3.9701     2.3149    -0.9828 H            1    LIG   0.0000
  57 H            4.0329     2.4349     0.6445 H            1    LIG   0.0000
  58 H            6.4353    -0.2364     0.4169 H            1    LIG   0.0000
  59 H            6.4953     1.3936     0.3370 H            1    LIG   0.0000
  60 H            8.6089     0.4297    -1.0505 H            1    LIG   0.0000
  61 H            9.3653    -1.1512    -4.2817 H            1    LIG   0.0000
  62 H            8.6941    -1.7002    -2.8980 H            1    LIG   0.0000
  63 H           10.4331    -0.5476    -1.6707 H            1    LIG   0.0000
  64 H           11.0221    -1.7335    -2.6264 H            1    LIG   0.0000
  65 H           12.2217     0.3730    -2.8416 H            1    LIG   0.0000
  66 H           11.6537    -0.2090    -4.2576 H            1    LIG   0.0000
  67 H           12.4055     2.5548    -3.9406 H            1    LIG   0.0000
  68 H           11.3010     4.6300    -4.3917 H            1    LIG   0.0000
  69 H            8.9139     4.7656    -4.3198 H            1    LIG   0.0000
  70 H            7.6378     2.8243    -3.7745 H            1    LIG   0.0000
@<TRIPOS>BOND
   1        1        2 1
   2        2        3 am
   3        3        4 2
   4        3        5 am
   5        5        6 1
   6        6        7 1
   7        7        8 ar
   8        8        9 ar
   9        9       10 ar
  10       10       11 1
  11       11       12 1
  12       11       13 1
  13       11       14 1
  14       10       15 ar
  15       15       16 ar
  16       16        7 ar
  17        6       17 1
  18       17       18 2
  19       18        2 1
  20       18       19 1
  21       19       20 1
  22       20       21 1
  23       21       22 1
  24       22       23 2
  25       22       24 am
  26       24       25 1
  27       25       26 1
  28       26       27 1
  29       27       28 1
  30       28       29 1
  31       29       30 ar
  32       30       31 ar
  33       31       32 ar
  34       32       33 ar
  35       33       34 ar
  36       34       29 ar
  37       34       25 1
  38       20       35 am
  39       35       17 1
  40       35       36 2
  41        6       37 1
  42       25       38 1
  43        1       39 1
  44        1       40 1
  45        1       41 1
  46        5       42 1
  47        8       43 1
  48        9       44 1
  49       12       45 1
  50       12       46 1
  51       12       47 1
  52       13       48 1
  53       13       49 1
  54       13       50 1
  55       14       51 1
  56       14       52 1
  57       14       53 1
  58       15       54 1
  59       16       55 1
  60       19       56 1
  61       19       57 1
  62       21       58 1
  63       21       59 1
  64       24       60 1
  65       26       61 1
  66       26       62 1
  67       27       63 1
  68       27       64 1
  69       28       65 1
  70       28       66 1
  71       30       67 1
  72       31       68 1
  73       32       69 1
  74       33       70 1

