@<TRIPOS>MOLECULE
*****
 70 74 0 0 0
SMALL
USER_CHARGES

@<TRIPOS>ATOM
      1 C1          1.1891    3.5660   -0.0290 C.3     1  LIG1        0.0000
      2 N2          1.1880    2.0954   -0.0150 N.am    1  LIG1        0.0000
      3 C3         -0.0357    1.4115   -0.0015 C.2     1  LIG1        0.0000
      4 O4         -1.0961    2.0153   -0.0084 O.2     1  LIG1        0.0000
      5 N5         -0.0690    0.0105    0.0215 N.am    1  LIG1        0.0000
      6 C6          1.1577   -0.8001    0.0615 C.3     1  LIG1        0.0000
      7 C7          1.0836   -1.8406   -1.0449 C.3     1  LIG1        0.0000
      8 C8         -0.0557   -2.6273   -1.1718 C.3     1  LIG1        0.0000
      9 C9         -0.1326   -3.5827   -2.1801 C.3     1  LIG1        0.0000
     10 C10         0.9400   -3.7358   -3.0523 C.3     1  LIG1        0.0000
     11 C11         0.8615   -4.7767   -4.1569 C.3     1  LIG1        0.0000
     12 C12         0.6781   -6.1547   -3.5423 C.3     1  LIG1        0.0000
     13 C13        -0.3179   -4.4652   -5.0637 C.3     1  LIG1        0.0000
     14 C14         2.1459   -4.7511   -4.9693 C.3     1  LIG1        0.0000
     15 C15         2.0839   -2.9531   -2.9337 C.3     1  LIG1        0.0000
     16 C16         2.1512   -2.0002   -1.9228 C.3     1  LIG1        0.0000
     17 C17         2.4231    0.0449    0.0086 C.2     1  LIG1        0.0000
     18 C18         2.3855    1.3533   -0.0315 C.2     1  LIG1        0.0000
     19 C19         3.8195    1.8290   -0.1219 C.3     1  LIG1        0.0000
     20 N20         4.6537    0.6236   -0.0652 N.am    1  LIG1        0.0000
     21 C21         6.1239    0.5683   -0.0886 C.3     1  LIG1        0.0000
     22 C22         6.6048    0.4801   -1.5278 C.2     1  LIG1        0.0000
     23 O23         7.7797    0.4252   -1.7655 O.2     1  LIG1        0.0000
     24 N24         5.6968    0.4633   -2.5536 N.am    1  LIG1        0.0000
     25 C25         6.1618    0.3780   -3.9452 C.3     1  LIG1        0.0000
     26 C26         5.7642    1.6261   -4.7173 C.3     1  LIG1        0.0000
     27 C27         6.1797    1.4434   -6.1669 C.3     1  LIG1        0.0000
     28 C28         5.2610    0.3961   -6.7724 C.3     1  LIG1        0.0000
     29 C29         5.2569   -0.8944   -5.9676 C.3     1  LIG1        0.0000
     30 C30         4.8233   -2.0492   -6.6019 C.3     1  LIG1        0.0000
     31 C31         4.7899   -3.2322   -5.8734 C.3     1  LIG1        0.0000
     32 C32         5.1860   -3.2567   -4.5407 C.3     1  LIG1        0.0000
     33 C33         5.6249   -2.0877   -3.9309 C.3     1  LIG1        0.0000
     34 C34         5.6714   -0.8898   -4.6341 C.3     1  LIG1        0.0000
     35 C35         3.7771   -0.4542    0.0025 C.2     1  LIG1        0.0000
     36 O36         4.1140   -1.6284    0.0484 O.2     1  LIG1        0.0000
     37 H           1.1628   -1.2909    0.9328 H       1  LIG1        0.0000
     38 H           7.1610    0.3421   -3.9263 H       1  LIG1        0.0000
     39 H           2.1322    3.8985   -0.0376 H       1  LIG1        0.0000
     40 H           0.7133    3.8919   -0.8460 H       1  LIG1        0.0000
     41 H           0.7227    3.9075    0.7869 H       1  LIG1        0.0000
     42 H          -0.9552   -0.4528    0.0103 H       1  LIG1        0.0000
     43 H          -0.8198   -2.5065   -0.5382 H       1  LIG1        0.0000
     44 H          -0.9488   -4.1522   -2.2767 H       1  LIG1        0.0000
     45 H           0.6265   -6.8396   -4.2691 H       1  LIG1        0.0000
     46 H           1.4540   -6.3596   -2.9457 H       1  LIG1        0.0000
     47 H          -0.1669   -6.1715   -3.0078 H       1  LIG1        0.0000
     48 H          -0.3695   -5.1501   -5.7905 H       1  LIG1        0.0000
     49 H          -1.1629   -4.4820   -4.5292 H       1  LIG1        0.0000
     50 H          -0.1972   -3.5586   -5.4680 H       1  LIG1        0.0000
     51 H           2.0943   -5.4360   -5.6961 H       1  LIG1        0.0000
     52 H           2.2666   -3.8445   -5.3736 H       1  LIG1        0.0000
     53 H           2.9219   -4.9560   -4.3727 H       1  LIG1        0.0000
     54 H           2.8481   -3.0741   -3.5672 H       1  LIG1        0.0000
     55 H           2.9670   -1.4298   -1.8269 H       1  LIG1        0.0000
     56 H           3.9701    2.3149   -0.9828 H       1  LIG1        0.0000
     57 H           4.0329    2.4349    0.6445 H       1  LIG1        0.0000
     58 H           6.4353   -0.2364    0.4169 H       1  LIG1        0.0000
     59 H           6.4953    1.3936    0.3370 H       1  LIG1        0.0000
     60 H           4.7177    0.5090   -2.3554 H       1  LIG1        0.0000
     61 H           6.2268    2.4241   -4.3311 H       1  LIG1        0.0000
     62 H           4.7742    1.7560   -4.6631 H       1  LIG1        0.0000
     63 H           6.0858    2.3076   -6.6611 H       1  LIG1        0.0000
     64 H           7.1294    1.1338   -6.2142 H       1  LIG1        0.0000
     65 H           4.3305    0.7613   -6.8013 H       1  LIG1        0.0000
     66 H           5.5694    0.1954   -7.7022 H       1  LIG1        0.0000
     67 H           4.5412   -2.0309   -7.5611 H       1  LIG1        0.0000
     68 H           4.4777   -4.0747   -6.3123 H       1  LIG1        0.0000
     69 H           5.1551   -4.1119   -4.0234 H       1  LIG1        0.0000
     70 H           5.9111   -2.1087   -2.9730 H       1  LIG1        0.0000
@<TRIPOS>BOND
     1     1     2    1
     2     2     3   am
     3     3     4    2
     4     3     5   am
     5     5     6    1
     6     6     7    1
     7     7     8   ar
     8     8     9   ar
     9     9    10   ar
    10    10    11    1
    11    11    12    1
    12    11    13    1
    13    11    14    1
    14    10    15   ar
    15    15    16   ar
    16    16     7   ar
    17     6    17    1
    18    17    18    2
    19    18     2    1
    20    18    19    1
    21    19    20    1
    22    20    21    1
    23    21    22    1
    24    22    23    2
    25    22    24   am
    26    24    25    1
    27    25    26    1
    28    26    27    1
    29    27    28    1
    30    28    29    1
    31    29    30   ar
    32    30    31   ar
    33    31    32   ar
    34    32    33   ar
    35    33    34   ar
    36    34    29   ar
    37    34    25    1
    38    20    35   am
    39    35    17    1
    40    35    36    2
    41     6    37    1
    42    25    38    1
    43     1    39    1
    44     1    40    1
    45     1    41    1
    46     5    42    1
    47     8    43    1
    48     9    44    1
    49    12    45    1
    50    12    46    1
    51    12    47    1
    52    13    48    1
    53    13    49    1
    54    13    50    1
    55    14    51    1
    56    14    52    1
    57    14    53    1
    58    15    54    1
    59    16    55    1
    60    19    56    1
    61    19    57    1
    62    21    58    1
    63    21    59    1
    64    24    60    1
    65    26    61    1
    66    26    62    1
    67    27    63    1
    68    27    64    1
    69    28    65    1
    70    28    66    1
    71    30    67    1
    72    31    68    1
    73    32    69    1
    74    33    70    1
