@<TRIPOS>MOLECULE
*****
 70 74 0 0 0
SMALL
USER_CHARGES

@<TRIPOS>ATOM
      1 C1          1.1891    3.5660   -0.0290 C.3     1  LIG1        0.0000
      2 N2          1.1880    2.0954   -0.0150 N.am    1  LIG1        0.0000
      3 C3         -0.0357    1.4115   -0.0015 C.2     1  LIG1        0.0000
      4 O4         -1.0961    2.0153   -0.0084 O.2     1  LIG1        0.0000
      5 N5         -0.0690    0.0105    0.0215 N.am    1  LIG1        0.0000
      6 C6          1.1577   -0.8001    0.0615 C.3     1  LIG1        0.0000
      7 C7          1.0836   -1.8406   -1.0449 C.3     1  LIG1        0.0000
      8 C8          2.2233   -2.1406   -1.7823 C.3     1  LIG1        0.0000
      9 C9          2.1653   -3.0902   -2.7973 C.3     1  LIG1        0.0000
     10 C10         0.9582   -3.7296   -3.0593 C.3     1  LIG1        0.0000
     11 C11         0.8887   -4.7690   -4.1659 C.3     1  LIG1        0.0000
     12 C12         1.2676   -4.1256   -5.4899 C.3     1  LIG1        0.0000
     13 C13         1.8543   -5.9019   -3.8584 C.3     1  LIG1        0.0000
     14 C14        -0.5254   -5.3190   -4.2562 C.3     1  LIG1        0.0000
     15 C15        -0.1875   -3.4365   -2.3269 C.3     1  LIG1        0.0000
     16 C16        -0.1194   -2.4861   -1.3136 C.3     1  LIG1        0.0000
     17 C17         2.4231    0.0449    0.0086 C.2     1  LIG1        0.0000
     18 C18         2.3855    1.3533   -0.0315 C.2     1  LIG1        0.0000
     19 C19         3.8195    1.8290   -0.1219 C.3     1  LIG1        0.0000
     20 N20         4.6537    0.6236   -0.0652 N.am    1  LIG1        0.0000
     21 C21         6.1239    0.5683   -0.0886 C.3     1  LIG1        0.0000
     22 C22         6.6555    0.6185    1.3346 C.2     1  LIG1        0.0000
     23 O23         5.8925    0.6918    2.2579 O.2     1  LIG1        0.0000
     24 N24         8.0058    0.5800    1.5632 N.am    1  LIG1        0.0000
     25 C25         8.5198    0.6285    2.9393 C.3     1  LIG1        0.0000
     26 C26         9.3579    1.8794    3.1512 C.3     1  LIG1        0.0000
     27 C27         9.9435    1.8301    4.5518 C.3     1  LIG1        0.0000
     28 C28        11.0016    0.7403    4.5619 C.3     1  LIG1        0.0000
     29 C29        10.4528   -0.5934    4.0786 C.3     1  LIG1        0.0000
     30 C30        11.1492   -1.7416    4.4255 C.3     1  LIG1        0.0000
     31 C31        10.6750   -2.9664    3.9712 C.3     1  LIG1        0.0000
     32 C32         9.5267   -3.0376    3.1902 C.3     1  LIG1        0.0000
     33 C33         8.8421   -1.8732    2.8640 C.3     1  LIG1        0.0000
     34 C34         9.2908   -0.6340    3.3053 C.3     1  LIG1        0.0000
     35 C35         3.7771   -0.4542    0.0025 C.2     1  LIG1        0.0000
     36 O36         4.1140   -1.6284    0.0484 O.2     1  LIG1        0.0000
     37 H           1.1628   -1.2909    0.9328 H       1  LIG1        0.0000
     38 H           7.7319    0.6876    3.5522 H       1  LIG1        0.0000
     39 H           2.1322    3.8985   -0.0376 H       1  LIG1        0.0000
     40 H           0.7133    3.8919   -0.8460 H       1  LIG1        0.0000
     41 H           0.7227    3.9075    0.7869 H       1  LIG1        0.0000
     42 H          -0.9552   -0.4528    0.0103 H       1  LIG1        0.0000
     43 H           3.0850   -1.6738   -1.5830 H       1  LIG1        0.0000
     44 H           2.9813   -3.3103   -3.3318 H       1  LIG1        0.0000
     45 H           1.2218   -4.8095   -6.2180 H       1  LIG1        0.0000
     46 H           0.6323   -3.3803   -5.6922 H       1  LIG1        0.0000
     47 H           2.1979   -3.7638   -5.4305 H       1  LIG1        0.0000
     48 H           1.8085   -6.5858   -4.5865 H       1  LIG1        0.0000
     49 H           2.7846   -5.5400   -3.7989 H       1  LIG1        0.0000
     50 H           1.6050   -6.3251   -2.9873 H       1  LIG1        0.0000
     51 H          -0.5712   -6.0029   -4.9843 H       1  LIG1        0.0000
     52 H          -0.7747   -5.7422   -3.3852 H       1  LIG1        0.0000
     53 H          -1.1607   -4.5737   -4.4586 H       1  LIG1        0.0000
     54 H          -1.0491   -3.9033   -2.5263 H       1  LIG1        0.0000
     55 H          -0.9351   -2.2668   -0.7782 H       1  LIG1        0.0000
     56 H           3.9701    2.3149   -0.9828 H       1  LIG1        0.0000
     57 H           4.0329    2.4349    0.6445 H       1  LIG1        0.0000
     58 H           6.4786    1.3480   -0.6046 H       1  LIG1        0.0000
     59 H           6.4186   -0.2819   -0.5247 H       1  LIG1        0.0000
     60 H           8.6416    0.5189    0.7938 H       1  LIG1        0.0000
     61 H           8.7832    2.6919    3.0534 H       1  LIG1        0.0000
     62 H          10.0959    1.9100    2.4771 H       1  LIG1        0.0000
     63 H          10.3577    2.7111    4.7806 H       1  LIG1        0.0000
     64 H           9.2263    1.6167    5.2152 H       1  LIG1        0.0000
     65 H          11.7539    1.0155    3.9633 H       1  LIG1        0.0000
     66 H          11.3419    0.6297    5.4957 H       1  LIG1        0.0000
     67 H          11.9734   -1.6894    4.9894 H       1  LIG1        0.0000
     68 H          11.1648   -3.8054    4.2084 H       1  LIG1        0.0000
     69 H           9.1949   -3.9231    2.8648 H       1  LIG1        0.0000
     70 H           8.0154   -1.9275    2.3040 H       1  LIG1        0.0000
@<TRIPOS>BOND
     1     1     2    1
     2     2     3   am
     3     3     4    2
     4     3     5   am
     5     5     6    1
     6     6     7    1
     7     7     8   ar
     8     8     9   ar
     9     9    10   ar
    10    10    11    1
    11    11    12    1
    12    11    13    1
    13    11    14    1
    14    10    15   ar
    15    15    16   ar
    16    16     7   ar
    17     6    17    1
    18    17    18    2
    19    18     2    1
    20    18    19    1
    21    19    20    1
    22    20    21    1
    23    21    22    1
    24    22    23    2
    25    22    24   am
    26    24    25    1
    27    25    26    1
    28    26    27    1
    29    27    28    1
    30    28    29    1
    31    29    30   ar
    32    30    31   ar
    33    31    32   ar
    34    32    33   ar
    35    33    34   ar
    36    34    29   ar
    37    34    25    1
    38    20    35   am
    39    35    17    1
    40    35    36    2
    41     6    37    1
    42    25    38    1
    43     1    39    1
    44     1    40    1
    45     1    41    1
    46     5    42    1
    47     8    43    1
    48     9    44    1
    49    12    45    1
    50    12    46    1
    51    12    47    1
    52    13    48    1
    53    13    49    1
    54    13    50    1
    55    14    51    1
    56    14    52    1
    57    14    53    1
    58    15    54    1
    59    16    55    1
    60    19    56    1
    61    19    57    1
    62    21    58    1
    63    21    59    1
    64    24    60    1
    65    26    61    1
    66    26    62    1
    67    27    63    1
    68    27    64    1
    69    28    65    1
    70    28    66    1
    71    30    67    1
    72    31    68    1
    73    32    69    1
    74    33    70    1
