@<TRIPOS>MOLECULE
*****
 70 74 0 0 0
SMALL
USER_CHARGES

@<TRIPOS>ATOM
      1 C1          1.1891    3.5660   -0.0290 C.3     1  LIG1        0.0000
      2 N2          1.1880    2.0954   -0.0150 N.am    1  LIG1        0.0000
      3 C3         -0.0357    1.4115   -0.0015 C.2     1  LIG1        0.0000
      4 O4         -1.0961    2.0153   -0.0084 O.2     1  LIG1        0.0000
      5 N5         -0.0690    0.0105    0.0215 N.am    1  LIG1        0.0000
      6 C6          1.1577   -0.8001    0.0615 C.3     1  LIG1        0.0000
      7 C7          1.0836   -1.8406   -1.0449 C.3     1  LIG1        0.0000
      8 C8          1.5357   -3.1329   -0.8031 C.3     1  LIG1        0.0000
      9 C9          1.4731   -4.0915   -1.8093 C.3     1  LIG1        0.0000
     10 C10         0.9542   -3.7386   -3.0506 C.3     1  LIG1        0.0000
     11 C11         0.8817   -4.7817   -4.1535 C.3     1  LIG1        0.0000
     12 C12        -0.5653   -4.9684   -4.5799 C.3     1  LIG1        0.0000
     13 C13         1.7050   -4.3182   -5.3441 C.3     1  LIG1        0.0000
     14 C14         1.4328   -6.1017   -3.6394 C.3     1  LIG1        0.0000
     15 C15         0.4989   -2.4484   -3.3021 C.3     1  LIG1        0.0000
     16 C16         0.5651   -1.4970   -2.2896 C.3     1  LIG1        0.0000
     17 C17         2.4231    0.0449    0.0086 C.2     1  LIG1        0.0000
     18 C18         2.3855    1.3533   -0.0315 C.2     1  LIG1        0.0000
     19 C19         3.8195    1.8290   -0.1219 C.3     1  LIG1        0.0000
     20 N20         4.6537    0.6236   -0.0652 N.am    1  LIG1        0.0000
     21 C21         6.1239    0.5683   -0.0886 C.3     1  LIG1        0.0000
     22 C22         6.6048    0.4801   -1.5278 C.2     1  LIG1        0.0000
     23 O23         5.8095    0.4654   -2.4263 O.2     1  LIG1        0.0000
     24 N24         7.9462    0.4174   -1.7992 N.am    1  LIG1        0.0000
     25 C25         8.4120    0.3320   -3.1936 C.3     1  LIG1        0.0000
     26 C26         9.3039   -0.8737   -3.4622 C.3     1  LIG1        0.0000
     27 C27        10.6541   -0.8119   -2.7586 C.3     1  LIG1        0.0000
     28 C28        10.9868    0.4924   -2.0436 C.3     1  LIG1        0.0000
     29 C29        10.5187    1.6094   -2.9744 C.3     1  LIG1        0.0000
     30 C30        11.3278    2.6891   -3.2790 C.3     1  LIG1        0.0000
     31 C31        10.9241    3.6549   -4.1859 C.3     1  LIG1        0.0000
     32 C32         9.6858    3.5624   -4.8066 C.3     1  LIG1        0.0000
     33 C33         8.8490    2.4943   -4.4944 C.3     1  LIG1        0.0000
     34 C34         9.2617    1.5366   -3.5754 C.3     1  LIG1        0.0000
     35 C35         3.7771   -0.4542    0.0025 C.2     1  LIG1        0.0000
     36 O36         4.1140   -1.6284    0.0484 O.2     1  LIG1        0.0000
     37 H           1.1628   -1.2909    0.9328 H       1  LIG1        0.0000
     38 H           7.6176    0.2897   -3.7994 H       1  LIG1        0.0000
     39 H           2.1322    3.8985   -0.0376 H       1  LIG1        0.0000
     40 H           0.7133    3.8919   -0.8460 H       1  LIG1        0.0000
     41 H           0.7227    3.9075    0.7869 H       1  LIG1        0.0000
     42 H          -0.9552   -0.4528    0.0103 H       1  LIG1        0.0000
     43 H           1.9060   -3.3733    0.0941 H       1  LIG1        0.0000
     44 H           1.7970   -5.0227   -1.6422 H       1  LIG1        0.0000
     45 H          -0.6130   -5.6548   -5.3057 H       1  LIG1        0.0000
     46 H          -1.1070   -5.2733   -3.7966 H       1  LIG1        0.0000
     47 H          -0.9278   -4.1000   -4.9181 H       1  LIG1        0.0000
     48 H           1.6573   -5.0045   -6.0698 H       1  LIG1        0.0000
     49 H           1.3425   -3.4497   -5.6823 H       1  LIG1        0.0000
     50 H           2.6570   -4.1953   -5.0636 H       1  LIG1        0.0000
     51 H           1.3851   -6.7881   -4.3652 H       1  LIG1        0.0000
     52 H           2.3847   -5.9789   -3.3589 H       1  LIG1        0.0000
     53 H           0.8911   -6.4066   -2.8561 H       1  LIG1        0.0000
     54 H           0.1288   -2.2080   -4.1994 H       1  LIG1        0.0000
     55 H           0.2400   -0.5661   -2.4562 H       1  LIG1        0.0000
     56 H           3.9701    2.3149   -0.9828 H       1  LIG1        0.0000
     57 H           4.0329    2.4349    0.6445 H       1  LIG1        0.0000
     58 H           6.4353   -0.2364    0.4169 H       1  LIG1        0.0000
     59 H           6.4953    1.3936    0.3370 H       1  LIG1        0.0000
     60 H           8.6089    0.4297   -1.0505 H       1  LIG1        0.0000
     61 H           9.4646   -0.9332   -4.4475 H       1  LIG1        0.0000
     62 H           8.8247   -1.6950   -3.1525 H       1  LIG1        0.0000
     63 H          10.6772   -1.5456   -2.0795 H       1  LIG1        0.0000
     64 H          11.3628   -0.9714   -3.4459 H       1  LIG1        0.0000
     65 H          10.5043    0.5428   -1.1691 H       1  LIG1        0.0000
     66 H          11.9718    0.5611   -1.8852 H       1  LIG1        0.0000
     67 H          12.2205    2.7739   -2.8364 H       1  LIG1        0.0000
     68 H          11.5284    4.4238   -4.3949 H       1  LIG1        0.0000
     69 H           9.3985    4.2540   -5.4693 H       1  LIG1        0.0000
     70 H           7.9526    2.4162   -4.9307 H       1  LIG1        0.0000
@<TRIPOS>BOND
     1     1     2    1
     2     2     3   am
     3     3     4    2
     4     3     5   am
     5     5     6    1
     6     6     7    1
     7     7     8   ar
     8     8     9   ar
     9     9    10   ar
    10    10    11    1
    11    11    12    1
    12    11    13    1
    13    11    14    1
    14    10    15   ar
    15    15    16   ar
    16    16     7   ar
    17     6    17    1
    18    17    18    2
    19    18     2    1
    20    18    19    1
    21    19    20    1
    22    20    21    1
    23    21    22    1
    24    22    23    2
    25    22    24   am
    26    24    25    1
    27    25    26    1
    28    26    27    1
    29    27    28    1
    30    28    29    1
    31    29    30   ar
    32    30    31   ar
    33    31    32   ar
    34    32    33   ar
    35    33    34   ar
    36    34    29   ar
    37    34    25    1
    38    20    35   am
    39    35    17    1
    40    35    36    2
    41     6    37    1
    42    25    38    1
    43     1    39    1
    44     1    40    1
    45     1    41    1
    46     5    42    1
    47     8    43    1
    48     9    44    1
    49    12    45    1
    50    12    46    1
    51    12    47    1
    52    13    48    1
    53    13    49    1
    54    13    50    1
    55    14    51    1
    56    14    52    1
    57    14    53    1
    58    15    54    1
    59    16    55    1
    60    19    56    1
    61    19    57    1
    62    21    58    1
    63    21    59    1
    64    24    60    1
    65    26    61    1
    66    26    62    1
    67    27    63    1
    68    27    64    1
    69    28    65    1
    70    28    66    1
    71    30    67    1
    72    31    68    1
    73    32    69    1
    74    33    70    1
