@<TRIPOS>MOLECULE

  28   30
SMALL
USER_CHARGES
@<TRIPOS>ATOM
   1 F1           3.7061    -0.7117     2.3203 F            1    LIG   0.0000
   2 C2           4.2784    -1.0261     1.1614 C.ar         1    LIG   0.0000
   3 C3           5.4933    -1.7027     1.1512 C.ar         1    LIG   0.0000
   4 C4           6.0948    -2.0326    -0.0584 C.ar         1    LIG   0.0000
   5 C5           5.4808    -1.6864    -1.2566 C.ar         1    LIG   0.0000
   6 C6           4.2650    -1.0106    -1.2459 C.ar         1    LIG   0.0000
   7 F7           3.6791    -0.6815    -2.3937 F            1    LIG   0.0000
   8 C8           3.6614    -0.6793    -0.0364 C.ar         1    LIG   0.0000
   9 C9           2.3938     0.0256    -0.0213 C.ar         1    LIG   0.0000
  10 C10          2.3819     1.4172    -0.0109 C.ar         1    LIG   0.0000
  11 C11          1.1713     2.1017     0.0040 C.ar         1    LIG   0.0000
  12 C12         -0.0164     1.3781     0.0095 C.ar         1    LIG   0.0000
  13 N13         -1.2390     2.0618     0.0249 N.pl3        1    LIG   0.0000
  14 N14         -1.3719     3.3708     0.0350 N.2          1    LIG   0.0000
  15 C15         -2.6539     3.6541     0.0394 C.2          1    LIG   0.0000
  16 C16         -3.3376     2.4179     0.0350 C.2          1    LIG   0.0000
  17 N17         -2.4172     1.4788     0.0283 N.2          1    LIG   0.0000
  18 C18         -0.0146    -0.0125    -0.0002 C.ar         1    LIG   0.0000
  19 C19          1.2008    -0.6892    -0.0164 C.ar         1    LIG   0.0000
  20 H            5.9342    -1.9518     2.0134 H            1    LIG   0.0000
  21 H            6.9687    -2.5187    -0.0663 H            1    LIG   0.0000
  22 H            5.9133    -1.9233    -2.1266 H            1    LIG   0.0000
  23 H            3.2435     1.9248    -0.0142 H            1    LIG   0.0000
  24 H            1.1551     3.1015     0.0106 H            1    LIG   0.0000
  25 H           -3.0653     4.5655     0.0448 H            1    LIG   0.0000
  26 H           -4.3285     2.2833     0.0367 H            1    LIG   0.0000
  27 H           -0.8764    -0.5199     0.0045 H            1    LIG   0.0000
  28 H            1.2167    -1.6890    -0.0244 H            1    LIG   0.0000
@<TRIPOS>BOND
   1        1        2 1
   2        2        3 ar
   3        3        4 ar
   4        4        5 ar
   5        5        6 ar
   6        6        7 1
   7        6        8 ar
   8        8        2 ar
   9        8        9 1
  10        9       10 ar
  11       10       11 ar
  12       11       12 ar
  13       12       13 1
  14       13       14 1
  15       14       15 2
  16       15       16 1
  17       16       17 2
  18       17       13 1
  19       12       18 ar
  20       18       19 ar
  21       19        9 ar
  22        3       20 1
  23        4       21 1
  24        5       22 1
  25       10       23 1
  26       11       24 1
  27       15       25 1
  28       16       26 1
  29       18       27 1
  30       19       28 1

@<TRIPOS>MOLECULE

  28   30
SMALL
USER_CHARGES
@<TRIPOS>ATOM
   1 F1           3.7061    -0.7117     2.3203 F            1    LIG   0.0000
   2 C2           4.2784    -1.0261     1.1614 C.ar         1    LIG   0.0000
   3 C3           5.4933    -1.7027     1.1512 C.ar         1    LIG   0.0000
   4 C4           6.0948    -2.0326    -0.0584 C.ar         1    LIG   0.0000
   5 C5           5.4808    -1.6864    -1.2566 C.ar         1    LIG   0.0000
   6 C6           4.2650    -1.0106    -1.2459 C.ar         1    LIG   0.0000
   7 F7           3.6791    -0.6815    -2.3937 F            1    LIG   0.0000
   8 C8           3.6614    -0.6793    -0.0364 C.ar         1    LIG   0.0000
   9 C9           2.3938     0.0256    -0.0213 C.ar         1    LIG   0.0000
  10 C10          2.3819     1.4172    -0.0109 C.ar         1    LIG   0.0000
  11 C11          1.1713     2.1017     0.0040 C.ar         1    LIG   0.0000
  12 C12         -0.0164     1.3781     0.0095 C.ar         1    LIG   0.0000
  13 N13         -1.2390     2.0618     0.0249 N.pl3        1    LIG   0.0000
  14 N14         -1.6431     2.9069    -0.8991 N.2          1    LIG   0.0000
  15 C15         -2.8335     3.3464    -0.5623 C.2          1    LIG   0.0000
  16 C16         -3.1625     2.7168     0.6588 C.2          1    LIG   0.0000
  17 N17         -2.1457     1.9431     0.9693 N.2          1    LIG   0.0000
  18 C18         -0.0146    -0.0125    -0.0002 C.ar         1    LIG   0.0000
  19 C19          1.2008    -0.6892    -0.0164 C.ar         1    LIG   0.0000
  20 H            5.9342    -1.9518     2.0134 H            1    LIG   0.0000
  21 H            6.9687    -2.5187    -0.0663 H            1    LIG   0.0000
  22 H            5.9133    -1.9233    -2.1266 H            1    LIG   0.0000
  23 H            3.2435     1.9248    -0.0142 H            1    LIG   0.0000
  24 H            1.1551     3.1015     0.0106 H            1    LIG   0.0000
  25 H           -3.3965     3.9984    -1.0701 H            1    LIG   0.0000
  26 H           -4.0047     2.8363     1.1846 H            1    LIG   0.0000
  27 H           -0.8764    -0.5199     0.0045 H            1    LIG   0.0000
  28 H            1.2167    -1.6890    -0.0244 H            1    LIG   0.0000
@<TRIPOS>BOND
   1        1        2 1
   2        2        3 ar
   3        3        4 ar
   4        4        5 ar
   5        5        6 ar
   6        6        7 1
   7        6        8 ar
   8        8        2 ar
   9        8        9 1
  10        9       10 ar
  11       10       11 ar
  12       11       12 ar
  13       12       13 1
  14       13       14 1
  15       14       15 2
  16       15       16 1
  17       16       17 2
  18       17       13 1
  19       12       18 ar
  20       18       19 ar
  21       19        9 ar
  22        3       20 1
  23        4       21 1
  24        5       22 1
  25       10       23 1
  26       11       24 1
  27       15       25 1
  28       16       26 1
  29       18       27 1
  30       19       28 1

@<TRIPOS>MOLECULE

  28   30
SMALL
USER_CHARGES
@<TRIPOS>ATOM
   1 F1           3.7061    -0.7117     2.3203 F            1    LIG   0.0000
   2 C2           4.2784    -1.0261     1.1614 C.ar         1    LIG   0.0000
   3 C3           5.4933    -1.7027     1.1512 C.ar         1    LIG   0.0000
   4 C4           6.0948    -2.0326    -0.0584 C.ar         1    LIG   0.0000
   5 C5           5.4808    -1.6864    -1.2566 C.ar         1    LIG   0.0000
   6 C6           4.2650    -1.0106    -1.2459 C.ar         1    LIG   0.0000
   7 F7           3.6791    -0.6815    -2.3937 F            1    LIG   0.0000
   8 C8           3.6614    -0.6793    -0.0364 C.ar         1    LIG   0.0000
   9 C9           2.3938     0.0256    -0.0213 C.ar         1    LIG   0.0000
  10 C10          2.3819     1.4172    -0.0109 C.ar         1    LIG   0.0000
  11 C11          1.1713     2.1017     0.0040 C.ar         1    LIG   0.0000
  12 C12         -0.0164     1.3781     0.0095 C.ar         1    LIG   0.0000
  13 N13         -1.2390     2.0618     0.0249 N.pl3        1    LIG   0.0000
  14 N14         -1.6266     2.8941     0.9673 N.2          1    LIG   0.0000
  15 C15         -2.8154     3.3514     0.6487 C.2          1    LIG   0.0000
  16 C16         -3.1643     2.7416    -0.5768 C.2          1    LIG   0.0000
  17 N17         -2.1597     1.9604    -0.9079 N.2          1    LIG   0.0000
  18 C18         -0.0146    -0.0125    -0.0002 C.ar         1    LIG   0.0000
  19 C19          1.2008    -0.6892    -0.0164 C.ar         1    LIG   0.0000
  20 H            5.9342    -1.9518     2.0134 H            1    LIG   0.0000
  21 H            6.9687    -2.5187    -0.0663 H            1    LIG   0.0000
  22 H            5.9133    -1.9233    -2.1266 H            1    LIG   0.0000
  23 H            3.2435     1.9248    -0.0142 H            1    LIG   0.0000
  24 H            1.1551     3.1015     0.0106 H            1    LIG   0.0000
  25 H           -3.3656     4.0032     1.1708 H            1    LIG   0.0000
  26 H           -4.0104     2.8774    -1.0921 H            1    LIG   0.0000
  27 H           -0.8764    -0.5199     0.0045 H            1    LIG   0.0000
  28 H            1.2167    -1.6890    -0.0244 H            1    LIG   0.0000
@<TRIPOS>BOND
   1        1        2 1
   2        2        3 ar
   3        3        4 ar
   4        4        5 ar
   5        5        6 ar
   6        6        7 1
   7        6        8 ar
   8        8        2 ar
   9        8        9 1
  10        9       10 ar
  11       10       11 ar
  12       11       12 ar
  13       12       13 1
  14       13       14 1
  15       14       15 2
  16       15       16 1
  17       16       17 2
  18       17       13 1
  19       12       18 ar
  20       18       19 ar
  21       19        9 ar
  22        3       20 1
  23        4       21 1
  24        5       22 1
  25       10       23 1
  26       11       24 1
  27       15       25 1
  28       16       26 1
  29       18       27 1
  30       19       28 1

@<TRIPOS>MOLECULE

  28   30
SMALL
USER_CHARGES
@<TRIPOS>ATOM
   1 F1           3.1309    -1.7393     2.0012 F            1    LIG   0.0000
   2 C2           3.9843    -1.5514     0.9983 C.ar         1    LIG   0.0000
   3 C3           5.1982    -2.2298     0.9871 C.ar         1    LIG   0.0000
   4 C4           6.0931    -2.0356    -0.0594 C.ar         1    LIG   0.0000
   5 C5           5.7732    -1.1639    -1.0940 C.ar         1    LIG   0.0000
   6 C6           4.5584    -0.4865    -1.0830 C.ar         1    LIG   0.0000
   7 F7           4.2543     0.3461    -2.0745 F            1    LIG   0.0000
   8 C8           3.6614    -0.6793    -0.0364 C.ar         1    LIG   0.0000
   9 C9           2.3938     0.0256    -0.0213 C.ar         1    LIG   0.0000
  10 C10          2.3819     1.4172    -0.0109 C.ar         1    LIG   0.0000
  11 C11          1.1713     2.1017     0.0040 C.ar         1    LIG   0.0000
  12 C12         -0.0164     1.3781     0.0095 C.ar         1    LIG   0.0000
  13 N13         -1.2390     2.0618     0.0249 N.pl3        1    LIG   0.0000
  14 N14         -1.3719     3.3708     0.0350 N.2          1    LIG   0.0000
  15 C15         -2.6539     3.6541     0.0394 C.2          1    LIG   0.0000
  16 C16         -3.3376     2.4179     0.0350 C.2          1    LIG   0.0000
  17 N17         -2.4172     1.4788     0.0283 N.2          1    LIG   0.0000
  18 C18         -0.0146    -0.0125    -0.0002 C.ar         1    LIG   0.0000
  19 C19          1.2008    -0.6892    -0.0164 C.ar         1    LIG   0.0000
  20 H            5.4275    -2.8570     1.7314 H            1    LIG   0.0000
  21 H            6.9664    -2.5228    -0.0677 H            1    LIG   0.0000
  22 H            6.4168    -1.0239    -1.8465 H            1    LIG   0.0000
  23 H            3.2435     1.9248    -0.0142 H            1    LIG   0.0000
  24 H            1.1551     3.1015     0.0106 H            1    LIG   0.0000
  25 H           -3.0653     4.5655     0.0448 H            1    LIG   0.0000
  26 H           -4.3285     2.2833     0.0367 H            1    LIG   0.0000
  27 H           -0.8764    -0.5199     0.0045 H            1    LIG   0.0000
  28 H            1.2167    -1.6890    -0.0244 H            1    LIG   0.0000
@<TRIPOS>BOND
   1        1        2 1
   2        2        3 ar
   3        3        4 ar
   4        4        5 ar
   5        5        6 ar
   6        6        7 1
   7        6        8 ar
   8        8        2 ar
   9        8        9 1
  10        9       10 ar
  11       10       11 ar
  12       11       12 ar
  13       12       13 1
  14       13       14 1
  15       14       15 2
  16       15       16 1
  17       16       17 2
  18       17       13 1
  19       12       18 ar
  20       18       19 ar
  21       19        9 ar
  22        3       20 1
  23        4       21 1
  24        5       22 1
  25       10       23 1
  26       11       24 1
  27       15       25 1
  28       16       26 1
  29       18       27 1
  30       19       28 1

@<TRIPOS>MOLECULE

  28   30
SMALL
USER_CHARGES
@<TRIPOS>ATOM
   1 F1           3.1309    -1.7393     2.0012 F            1    LIG   0.0000
   2 C2           3.9843    -1.5514     0.9983 C.ar         1    LIG   0.0000
   3 C3           5.1982    -2.2298     0.9871 C.ar         1    LIG   0.0000
   4 C4           6.0931    -2.0356    -0.0594 C.ar         1    LIG   0.0000
   5 C5           5.7732    -1.1639    -1.0940 C.ar         1    LIG   0.0000
   6 C6           4.5584    -0.4865    -1.0830 C.ar         1    LIG   0.0000
   7 F7           4.2543     0.3461    -2.0745 F            1    LIG   0.0000
   8 C8           3.6614    -0.6793    -0.0364 C.ar         1    LIG   0.0000
   9 C9           2.3938     0.0256    -0.0213 C.ar         1    LIG   0.0000
  10 C10          2.3819     1.4172    -0.0109 C.ar         1    LIG   0.0000
  11 C11          1.1713     2.1017     0.0040 C.ar         1    LIG   0.0000
  12 C12         -0.0164     1.3781     0.0095 C.ar         1    LIG   0.0000
  13 N13         -1.2390     2.0618     0.0249 N.pl3        1    LIG   0.0000
  14 N14         -1.6431     2.9069    -0.8991 N.2          1    LIG   0.0000
  15 C15         -2.8335     3.3464    -0.5623 C.2          1    LIG   0.0000
  16 C16         -3.1625     2.7168     0.6588 C.2          1    LIG   0.0000
  17 N17         -2.1457     1.9431     0.9693 N.2          1    LIG   0.0000
  18 C18         -0.0146    -0.0125    -0.0002 C.ar         1    LIG   0.0000
  19 C19          1.2008    -0.6892    -0.0164 C.ar         1    LIG   0.0000
  20 H            5.4275    -2.8570     1.7314 H            1    LIG   0.0000
  21 H            6.9664    -2.5228    -0.0677 H            1    LIG   0.0000
  22 H            6.4168    -1.0239    -1.8465 H            1    LIG   0.0000
  23 H            3.2435     1.9248    -0.0142 H            1    LIG   0.0000
  24 H            1.1551     3.1015     0.0106 H            1    LIG   0.0000
  25 H           -3.3965     3.9984    -1.0701 H            1    LIG   0.0000
  26 H           -4.0047     2.8363     1.1846 H            1    LIG   0.0000
  27 H           -0.8764    -0.5199     0.0045 H            1    LIG   0.0000
  28 H            1.2167    -1.6890    -0.0244 H            1    LIG   0.0000
@<TRIPOS>BOND
   1        1        2 1
   2        2        3 ar
   3        3        4 ar
   4        4        5 ar
   5        5        6 ar
   6        6        7 1
   7        6        8 ar
   8        8        2 ar
   9        8        9 1
  10        9       10 ar
  11       10       11 ar
  12       11       12 ar
  13       12       13 1
  14       13       14 1
  15       14       15 2
  16       15       16 1
  17       16       17 2
  18       17       13 1
  19       12       18 ar
  20       18       19 ar
  21       19        9 ar
  22        3       20 1
  23        4       21 1
  24        5       22 1
  25       10       23 1
  26       11       24 1
  27       15       25 1
  28       16       26 1
  29       18       27 1
  30       19       28 1

@<TRIPOS>MOLECULE

  28   30
SMALL
USER_CHARGES
@<TRIPOS>ATOM
   1 F1           3.1309    -1.7393     2.0012 F            1    LIG   0.0000
   2 C2           3.9843    -1.5514     0.9983 C.ar         1    LIG   0.0000
   3 C3           5.1982    -2.2298     0.9871 C.ar         1    LIG   0.0000
   4 C4           6.0931    -2.0356    -0.0594 C.ar         1    LIG   0.0000
   5 C5           5.7732    -1.1639    -1.0940 C.ar         1    LIG   0.0000
   6 C6           4.5584    -0.4865    -1.0830 C.ar         1    LIG   0.0000
   7 F7           4.2543     0.3461    -2.0745 F            1    LIG   0.0000
   8 C8           3.6614    -0.6793    -0.0364 C.ar         1    LIG   0.0000
   9 C9           2.3938     0.0256    -0.0213 C.ar         1    LIG   0.0000
  10 C10          2.3819     1.4172    -0.0109 C.ar         1    LIG   0.0000
  11 C11          1.1713     2.1017     0.0040 C.ar         1    LIG   0.0000
  12 C12         -0.0164     1.3781     0.0095 C.ar         1    LIG   0.0000
  13 N13         -1.2390     2.0618     0.0249 N.pl3        1    LIG   0.0000
  14 N14         -1.6266     2.8941     0.9673 N.2          1    LIG   0.0000
  15 C15         -2.8154     3.3514     0.6487 C.2          1    LIG   0.0000
  16 C16         -3.1643     2.7416    -0.5768 C.2          1    LIG   0.0000
  17 N17         -2.1597     1.9604    -0.9079 N.2          1    LIG   0.0000
  18 C18         -0.0146    -0.0125    -0.0002 C.ar         1    LIG   0.0000
  19 C19          1.2008    -0.6892    -0.0164 C.ar         1    LIG   0.0000
  20 H            5.4275    -2.8570     1.7314 H            1    LIG   0.0000
  21 H            6.9664    -2.5228    -0.0677 H            1    LIG   0.0000
  22 H            6.4168    -1.0239    -1.8465 H            1    LIG   0.0000
  23 H            3.2435     1.9248    -0.0142 H            1    LIG   0.0000
  24 H            1.1551     3.1015     0.0106 H            1    LIG   0.0000
  25 H           -3.3656     4.0032     1.1708 H            1    LIG   0.0000
  26 H           -4.0104     2.8774    -1.0921 H            1    LIG   0.0000
  27 H           -0.8764    -0.5199     0.0045 H            1    LIG   0.0000
  28 H            1.2167    -1.6890    -0.0244 H            1    LIG   0.0000
@<TRIPOS>BOND
   1        1        2 1
   2        2        3 ar
   3        3        4 ar
   4        4        5 ar
   5        5        6 ar
   6        6        7 1
   7        6        8 ar
   8        8        2 ar
   9        8        9 1
  10        9       10 ar
  11       10       11 ar
  12       11       12 ar
  13       12       13 1
  14       13       14 1
  15       14       15 2
  16       15       16 1
  17       16       17 2
  18       17       13 1
  19       12       18 ar
  20       18       19 ar
  21       19        9 ar
  22        3       20 1
  23        4       21 1
  24        5       22 1
  25       10       23 1
  26       11       24 1
  27       15       25 1
  28       16       26 1
  29       18       27 1
  30       19       28 1

@<TRIPOS>MOLECULE

  28   30
SMALL
USER_CHARGES
@<TRIPOS>ATOM
   1 F1           4.2764     0.3207     2.0078 F            1    LIG   0.0000
   2 C2           4.5700    -0.4983     1.0016 C.ar         1    LIG   0.0000
   3 C3           5.7859    -1.1729     0.9913 C.ar         1    LIG   0.0000
   4 C4           6.0965    -2.0296    -0.0592 C.ar         1    LIG   0.0000
   5 C5           5.1907    -2.2114    -1.0980 C.ar         1    LIG   0.0000
   6 C6           3.9741    -1.5373    -1.0867 C.ar         1    LIG   0.0000
   7 F7           3.1088    -1.7138    -2.0813 F            1    LIG   0.0000
   8 C8           3.6614    -0.6793    -0.0364 C.ar         1    LIG   0.0000
   9 C9           2.3938     0.0256    -0.0213 C.ar         1    LIG   0.0000
  10 C10          2.3819     1.4172    -0.0109 C.ar         1    LIG   0.0000
  11 C11          1.1713     2.1017     0.0040 C.ar         1    LIG   0.0000
  12 C12         -0.0164     1.3781     0.0095 C.ar         1    LIG   0.0000
  13 N13         -1.2390     2.0618     0.0249 N.pl3        1    LIG   0.0000
  14 N14         -1.3719     3.3708     0.0350 N.2          1    LIG   0.0000
  15 C15         -2.6539     3.6541     0.0394 C.2          1    LIG   0.0000
  16 C16         -3.3376     2.4179     0.0350 C.2          1    LIG   0.0000
  17 N17         -2.4172     1.4788     0.0283 N.2          1    LIG   0.0000
  18 C18         -0.0146    -0.0125    -0.0002 C.ar         1    LIG   0.0000
  19 C19          1.2008    -0.6892    -0.0164 C.ar         1    LIG   0.0000
  20 H            6.4369    -1.0421     1.7390 H            1    LIG   0.0000
  21 H            6.9709    -2.5146    -0.0674 H            1    LIG   0.0000
  22 H            5.4139    -2.8272    -1.8537 H            1    LIG   0.0000
  23 H            3.2435     1.9248    -0.0142 H            1    LIG   0.0000
  24 H            1.1551     3.1015     0.0106 H            1    LIG   0.0000
  25 H           -3.0653     4.5655     0.0448 H            1    LIG   0.0000
  26 H           -4.3285     2.2833     0.0367 H            1    LIG   0.0000
  27 H           -0.8764    -0.5199     0.0045 H            1    LIG   0.0000
  28 H            1.2167    -1.6890    -0.0244 H            1    LIG   0.0000
@<TRIPOS>BOND
   1        1        2 1
   2        2        3 ar
   3        3        4 ar
   4        4        5 ar
   5        5        6 ar
   6        6        7 1
   7        6        8 ar
   8        8        2 ar
   9        8        9 1
  10        9       10 ar
  11       10       11 ar
  12       11       12 ar
  13       12       13 1
  14       13       14 1
  15       14       15 2
  16       15       16 1
  17       16       17 2
  18       17       13 1
  19       12       18 ar
  20       18       19 ar
  21       19        9 ar
  22        3       20 1
  23        4       21 1
  24        5       22 1
  25       10       23 1
  26       11       24 1
  27       15       25 1
  28       16       26 1
  29       18       27 1
  30       19       28 1

@<TRIPOS>MOLECULE

  28   30
SMALL
USER_CHARGES
@<TRIPOS>ATOM
   1 F1           4.2764     0.3207     2.0078 F            1    LIG   0.0000
   2 C2           4.5700    -0.4983     1.0016 C.ar         1    LIG   0.0000
   3 C3           5.7859    -1.1729     0.9913 C.ar         1    LIG   0.0000
   4 C4           6.0965    -2.0296    -0.0592 C.ar         1    LIG   0.0000
   5 C5           5.1907    -2.2114    -1.0980 C.ar         1    LIG   0.0000
   6 C6           3.9741    -1.5373    -1.0867 C.ar         1    LIG   0.0000
   7 F7           3.1088    -1.7138    -2.0813 F            1    LIG   0.0000
   8 C8           3.6614    -0.6793    -0.0364 C.ar         1    LIG   0.0000
   9 C9           2.3938     0.0256    -0.0213 C.ar         1    LIG   0.0000
  10 C10          2.3819     1.4172    -0.0109 C.ar         1    LIG   0.0000
  11 C11          1.1713     2.1017     0.0040 C.ar         1    LIG   0.0000
  12 C12         -0.0164     1.3781     0.0095 C.ar         1    LIG   0.0000
  13 N13         -1.2390     2.0618     0.0249 N.pl3        1    LIG   0.0000
  14 N14         -1.6431     2.9069    -0.8991 N.2          1    LIG   0.0000
  15 C15         -2.8335     3.3464    -0.5623 C.2          1    LIG   0.0000
  16 C16         -3.1625     2.7168     0.6588 C.2          1    LIG   0.0000
  17 N17         -2.1457     1.9431     0.9693 N.2          1    LIG   0.0000
  18 C18         -0.0146    -0.0125    -0.0002 C.ar         1    LIG   0.0000
  19 C19          1.2008    -0.6892    -0.0164 C.ar         1    LIG   0.0000
  20 H            6.4369    -1.0421     1.7390 H            1    LIG   0.0000
  21 H            6.9709    -2.5146    -0.0674 H            1    LIG   0.0000
  22 H            5.4139    -2.8272    -1.8537 H            1    LIG   0.0000
  23 H            3.2435     1.9248    -0.0142 H            1    LIG   0.0000
  24 H            1.1551     3.1015     0.0106 H            1    LIG   0.0000
  25 H           -3.3965     3.9984    -1.0701 H            1    LIG   0.0000
  26 H           -4.0047     2.8363     1.1846 H            1    LIG   0.0000
  27 H           -0.8764    -0.5199     0.0045 H            1    LIG   0.0000
  28 H            1.2167    -1.6890    -0.0244 H            1    LIG   0.0000
@<TRIPOS>BOND
   1        1        2 1
   2        2        3 ar
   3        3        4 ar
   4        4        5 ar
   5        5        6 ar
   6        6        7 1
   7        6        8 ar
   8        8        2 ar
   9        8        9 1
  10        9       10 ar
  11       10       11 ar
  12       11       12 ar
  13       12       13 1
  14       13       14 1
  15       14       15 2
  16       15       16 1
  17       16       17 2
  18       17       13 1
  19       12       18 ar
  20       18       19 ar
  21       19        9 ar
  22        3       20 1
  23        4       21 1
  24        5       22 1
  25       10       23 1
  26       11       24 1
  27       15       25 1
  28       16       26 1
  29       18       27 1
  30       19       28 1

@<TRIPOS>MOLECULE

  28   30
SMALL
USER_CHARGES
@<TRIPOS>ATOM
   1 F1           4.2764     0.3207     2.0078 F            1    LIG   0.0000
   2 C2           4.5700    -0.4983     1.0016 C.ar         1    LIG   0.0000
   3 C3           5.7859    -1.1729     0.9913 C.ar         1    LIG   0.0000
   4 C4           6.0965    -2.0296    -0.0592 C.ar         1    LIG   0.0000
   5 C5           5.1907    -2.2114    -1.0980 C.ar         1    LIG   0.0000
   6 C6           3.9741    -1.5373    -1.0867 C.ar         1    LIG   0.0000
   7 F7           3.1088    -1.7138    -2.0813 F            1    LIG   0.0000
   8 C8           3.6614    -0.6793    -0.0364 C.ar         1    LIG   0.0000
   9 C9           2.3938     0.0256    -0.0213 C.ar         1    LIG   0.0000
  10 C10          2.3819     1.4172    -0.0109 C.ar         1    LIG   0.0000
  11 C11          1.1713     2.1017     0.0040 C.ar         1    LIG   0.0000
  12 C12         -0.0164     1.3781     0.0095 C.ar         1    LIG   0.0000
  13 N13         -1.2390     2.0618     0.0249 N.pl3        1    LIG   0.0000
  14 N14         -1.6266     2.8941     0.9673 N.2          1    LIG   0.0000
  15 C15         -2.8154     3.3514     0.6487 C.2          1    LIG   0.0000
  16 C16         -3.1643     2.7416    -0.5768 C.2          1    LIG   0.0000
  17 N17         -2.1597     1.9604    -0.9079 N.2          1    LIG   0.0000
  18 C18         -0.0146    -0.0125    -0.0002 C.ar         1    LIG   0.0000
  19 C19          1.2008    -0.6892    -0.0164 C.ar         1    LIG   0.0000
  20 H            6.4369    -1.0421     1.7390 H            1    LIG   0.0000
  21 H            6.9709    -2.5146    -0.0674 H            1    LIG   0.0000
  22 H            5.4139    -2.8272    -1.8537 H            1    LIG   0.0000
  23 H            3.2435     1.9248    -0.0142 H            1    LIG   0.0000
  24 H            1.1551     3.1015     0.0106 H            1    LIG   0.0000
  25 H           -3.3656     4.0032     1.1708 H            1    LIG   0.0000
  26 H           -4.0104     2.8774    -1.0921 H            1    LIG   0.0000
  27 H           -0.8764    -0.5199     0.0045 H            1    LIG   0.0000
  28 H            1.2167    -1.6890    -0.0244 H            1    LIG   0.0000
@<TRIPOS>BOND
   1        1        2 1
   2        2        3 ar
   3        3        4 ar
   4        4        5 ar
   5        5        6 ar
   6        6        7 1
   7        6        8 ar
   8        8        2 ar
   9        8        9 1
  10        9       10 ar
  11       10       11 ar
  12       11       12 ar
  13       12       13 1
  14       13       14 1
  15       14       15 2
  16       15       16 1
  17       16       17 2
  18       17       13 1
  19       12       18 ar
  20       18       19 ar
  21       19        9 ar
  22        3       20 1
  23        4       21 1
  24        5       22 1
  25       10       23 1
  26       11       24 1
  27       15       25 1
  28       16       26 1
  29       18       27 1
  30       19       28 1

@<TRIPOS>MOLECULE

  28   30
SMALL
USER_CHARGES
@<TRIPOS>ATOM
   1 F1           2.7049    -2.4868     1.1361 F            1    LIG   0.0000
   2 C2           3.7665    -1.9337     0.5561 C.ar         1    LIG   0.0000
   3 C3           4.9798    -2.6130     0.5430 C.ar         1    LIG   0.0000
   4 C4           6.0919    -2.0377    -0.0619 C.ar         1    LIG   0.0000
   5 C5           5.9897    -0.7840    -0.6539 C.ar         1    LIG   0.0000
   6 C6           4.7756    -0.1053    -0.6415 C.ar         1    LIG   0.0000
   7 F7           4.6803     1.0936    -1.2094 F            1    LIG   0.0000
   8 C8           3.6614    -0.6793    -0.0364 C.ar         1    LIG   0.0000
   9 C9           2.3938     0.0256    -0.0213 C.ar         1    LIG   0.0000
  10 C10          2.3819     1.4172    -0.0109 C.ar         1    LIG   0.0000
  11 C11          1.1713     2.1017     0.0040 C.ar         1    LIG   0.0000
  12 C12         -0.0164     1.3781     0.0095 C.ar         1    LIG   0.0000
  13 N13         -1.2390     2.0618     0.0249 N.pl3        1    LIG   0.0000
  14 N14         -1.3719     3.3708     0.0350 N.2          1    LIG   0.0000
  15 C15         -2.6539     3.6541     0.0394 C.2          1    LIG   0.0000
  16 C16         -3.3376     2.4179     0.0350 C.2          1    LIG   0.0000
  17 N17         -2.4172     1.4788     0.0283 N.2          1    LIG   0.0000
  18 C18         -0.0146    -0.0125    -0.0002 C.ar         1    LIG   0.0000
  19 C19          1.2008    -0.6892    -0.0164 C.ar         1    LIG   0.0000
  20 H            5.0526    -3.5151     0.9686 H            1    LIG   0.0000
  21 H            6.9648    -2.5256    -0.0712 H            1    LIG   0.0000
  22 H            6.7894    -0.3699    -1.0887 H            1    LIG   0.0000
  23 H            3.2435     1.9248    -0.0142 H            1    LIG   0.0000
  24 H            1.1551     3.1015     0.0106 H            1    LIG   0.0000
  25 H           -3.0653     4.5655     0.0448 H            1    LIG   0.0000
  26 H           -4.3285     2.2833     0.0367 H            1    LIG   0.0000
  27 H           -0.8764    -0.5199     0.0045 H            1    LIG   0.0000
  28 H            1.2167    -1.6890    -0.0244 H            1    LIG   0.0000
@<TRIPOS>BOND
   1        1        2 1
   2        2        3 ar
   3        3        4 ar
   4        4        5 ar
   5        5        6 ar
   6        6        7 1
   7        6        8 ar
   8        8        2 ar
   9        8        9 1
  10        9       10 ar
  11       10       11 ar
  12       11       12 ar
  13       12       13 1
  14       13       14 1
  15       14       15 2
  16       15       16 1
  17       16       17 2
  18       17       13 1
  19       12       18 ar
  20       18       19 ar
  21       19        9 ar
  22        3       20 1
  23        4       21 1
  24        5       22 1
  25       10       23 1
  26       11       24 1
  27       15       25 1
  28       16       26 1
  29       18       27 1
  30       19       28 1

@<TRIPOS>MOLECULE

  28   30
SMALL
USER_CHARGES
@<TRIPOS>ATOM
   1 F1           2.7049    -2.4868     1.1361 F            1    LIG   0.0000
   2 C2           3.7665    -1.9337     0.5561 C.ar         1    LIG   0.0000
   3 C3           4.9798    -2.6130     0.5430 C.ar         1    LIG   0.0000
   4 C4           6.0919    -2.0377    -0.0619 C.ar         1    LIG   0.0000
   5 C5           5.9897    -0.7840    -0.6539 C.ar         1    LIG   0.0000
   6 C6           4.7756    -0.1053    -0.6415 C.ar         1    LIG   0.0000
   7 F7           4.6803     1.0936    -1.2094 F            1    LIG   0.0000
   8 C8           3.6614    -0.6793    -0.0364 C.ar         1    LIG   0.0000
   9 C9           2.3938     0.0256    -0.0213 C.ar         1    LIG   0.0000
  10 C10          2.3819     1.4172    -0.0109 C.ar         1    LIG   0.0000
  11 C11          1.1713     2.1017     0.0040 C.ar         1    LIG   0.0000
  12 C12         -0.0164     1.3781     0.0095 C.ar         1    LIG   0.0000
  13 N13         -1.2390     2.0618     0.0249 N.pl3        1    LIG   0.0000
  14 N14         -1.6431     2.9069    -0.8991 N.2          1    LIG   0.0000
  15 C15         -2.8335     3.3464    -0.5623 C.2          1    LIG   0.0000
  16 C16         -3.1625     2.7168     0.6588 C.2          1    LIG   0.0000
  17 N17         -2.1457     1.9431     0.9693 N.2          1    LIG   0.0000
  18 C18         -0.0146    -0.0125    -0.0002 C.ar         1    LIG   0.0000
  19 C19          1.2008    -0.6892    -0.0164 C.ar         1    LIG   0.0000
  20 H            5.0526    -3.5151     0.9686 H            1    LIG   0.0000
  21 H            6.9648    -2.5256    -0.0712 H            1    LIG   0.0000
  22 H            6.7894    -0.3699    -1.0887 H            1    LIG   0.0000
  23 H            3.2435     1.9248    -0.0142 H            1    LIG   0.0000
  24 H            1.1551     3.1015     0.0106 H            1    LIG   0.0000
  25 H           -3.3965     3.9984    -1.0701 H            1    LIG   0.0000
  26 H           -4.0047     2.8363     1.1846 H            1    LIG   0.0000
  27 H           -0.8764    -0.5199     0.0045 H            1    LIG   0.0000
  28 H            1.2167    -1.6890    -0.0244 H            1    LIG   0.0000
@<TRIPOS>BOND
   1        1        2 1
   2        2        3 ar
   3        3        4 ar
   4        4        5 ar
   5        5        6 ar
   6        6        7 1
   7        6        8 ar
   8        8        2 ar
   9        8        9 1
  10        9       10 ar
  11       10       11 ar
  12       11       12 ar
  13       12       13 1
  14       13       14 1
  15       14       15 2
  16       15       16 1
  17       16       17 2
  18       17       13 1
  19       12       18 ar
  20       18       19 ar
  21       19        9 ar
  22        3       20 1
  23        4       21 1
  24        5       22 1
  25       10       23 1
  26       11       24 1
  27       15       25 1
  28       16       26 1
  29       18       27 1
  30       19       28 1

@<TRIPOS>MOLECULE

  28   30
SMALL
USER_CHARGES
@<TRIPOS>ATOM
   1 F1           2.7049    -2.4868     1.1361 F            1    LIG   0.0000
   2 C2           3.7665    -1.9337     0.5561 C.ar         1    LIG   0.0000
   3 C3           4.9798    -2.6130     0.5430 C.ar         1    LIG   0.0000
   4 C4           6.0919    -2.0377    -0.0619 C.ar         1    LIG   0.0000
   5 C5           5.9897    -0.7840    -0.6539 C.ar         1    LIG   0.0000
   6 C6           4.7756    -0.1053    -0.6415 C.ar         1    LIG   0.0000
   7 F7           4.6803     1.0936    -1.2094 F            1    LIG   0.0000
   8 C8           3.6614    -0.6793    -0.0364 C.ar         1    LIG   0.0000
   9 C9           2.3938     0.0256    -0.0213 C.ar         1    LIG   0.0000
  10 C10          2.3819     1.4172    -0.0109 C.ar         1    LIG   0.0000
  11 C11          1.1713     2.1017     0.0040 C.ar         1    LIG   0.0000
  12 C12         -0.0164     1.3781     0.0095 C.ar         1    LIG   0.0000
  13 N13         -1.2390     2.0618     0.0249 N.pl3        1    LIG   0.0000
  14 N14         -1.6266     2.8941     0.9673 N.2          1    LIG   0.0000
  15 C15         -2.8154     3.3514     0.6487 C.2          1    LIG   0.0000
  16 C16         -3.1643     2.7416    -0.5768 C.2          1    LIG   0.0000
  17 N17         -2.1597     1.9604    -0.9079 N.2          1    LIG   0.0000
  18 C18         -0.0146    -0.0125    -0.0002 C.ar         1    LIG   0.0000
  19 C19          1.2008    -0.6892    -0.0164 C.ar         1    LIG   0.0000
  20 H            5.0526    -3.5151     0.9686 H            1    LIG   0.0000
  21 H            6.9648    -2.5256    -0.0712 H            1    LIG   0.0000
  22 H            6.7894    -0.3699    -1.0887 H            1    LIG   0.0000
  23 H            3.2435     1.9248    -0.0142 H            1    LIG   0.0000
  24 H            1.1551     3.1015     0.0106 H            1    LIG   0.0000
  25 H           -3.3656     4.0032     1.1708 H            1    LIG   0.0000
  26 H           -4.0104     2.8774    -1.0921 H            1    LIG   0.0000
  27 H           -0.8764    -0.5199     0.0045 H            1    LIG   0.0000
  28 H            1.2167    -1.6890    -0.0244 H            1    LIG   0.0000
@<TRIPOS>BOND
   1        1        2 1
   2        2        3 ar
   3        3        4 ar
   4        4        5 ar
   5        5        6 ar
   6        6        7 1
   7        6        8 ar
   8        8        2 ar
   9        8        9 1
  10        9       10 ar
  11       10       11 ar
  12       11       12 ar
  13       12       13 1
  14       13       14 1
  15       14       15 2
  16       15       16 1
  17       16       17 2
  18       17       13 1
  19       12       18 ar
  20       18       19 ar
  21       19        9 ar
  22        3       20 1
  23        4       21 1
  24        5       22 1
  25       10       23 1
  26       11       24 1
  27       15       25 1
  28       16       26 1
  29       18       27 1
  30       19       28 1

@<TRIPOS>MOLECULE

  28   30
SMALL
USER_CHARGES
@<TRIPOS>ATOM
   1 F1           4.6891     1.0811     1.1475 F            1    LIG   0.0000
   2 C2           4.7809    -0.1096     0.5617 C.ar         1    LIG   0.0000
   3 C3           5.9978    -0.7826     0.5502 C.ar         1    LIG   0.0000
   4 C4           6.0977    -2.0273    -0.0617 C.ar         1    LIG   0.0000
   5 C5           4.9807    -2.5984    -0.6608 C.ar         1    LIG   0.0000
   6 C6           3.7635    -1.9253    -0.6480 C.ar         1    LIG   0.0000
   7 F7           2.6961    -2.4743    -1.2210 F            1    LIG   0.0000
   8 C8           3.6614    -0.6793    -0.0364 C.ar         1    LIG   0.0000
   9 C9           2.3938     0.0256    -0.0213 C.ar         1    LIG   0.0000
  10 C10          2.3819     1.4172    -0.0109 C.ar         1    LIG   0.0000
  11 C11          1.1713     2.1017     0.0040 C.ar         1    LIG   0.0000
  12 C12         -0.0164     1.3781     0.0095 C.ar         1    LIG   0.0000
  13 N13         -1.2390     2.0618     0.0249 N.pl3        1    LIG   0.0000
  14 N14         -1.3719     3.3708     0.0350 N.2          1    LIG   0.0000
  15 C15         -2.6539     3.6541     0.0394 C.2          1    LIG   0.0000
  16 C16         -3.3376     2.4179     0.0350 C.2          1    LIG   0.0000
  17 N17         -2.4172     1.4788     0.0283 N.2          1    LIG   0.0000
  18 C18         -0.0146    -0.0125    -0.0002 C.ar         1    LIG   0.0000
  19 C19          1.2008    -0.6892    -0.0164 C.ar         1    LIG   0.0000
  20 H            6.8008    -0.3715     0.9817 H            1    LIG   0.0000
  21 H            6.9726    -2.5115    -0.0707 H            1    LIG   0.0000
  22 H            5.0524    -3.4933    -1.1011 H            1    LIG   0.0000
  23 H            3.2435     1.9248    -0.0142 H            1    LIG   0.0000
  24 H            1.1551     3.1015     0.0106 H            1    LIG   0.0000
  25 H           -3.0653     4.5655     0.0448 H            1    LIG   0.0000
  26 H           -4.3285     2.2833     0.0367 H            1    LIG   0.0000
  27 H           -0.8764    -0.5199     0.0045 H            1    LIG   0.0000
  28 H            1.2167    -1.6890    -0.0244 H            1    LIG   0.0000
@<TRIPOS>BOND
   1        1        2 1
   2        2        3 ar
   3        3        4 ar
   4        4        5 ar
   5        5        6 ar
   6        6        7 1
   7        6        8 ar
   8        8        2 ar
   9        8        9 1
  10        9       10 ar
  11       10       11 ar
  12       11       12 ar
  13       12       13 1
  14       13       14 1
  15       14       15 2
  16       15       16 1
  17       16       17 2
  18       17       13 1
  19       12       18 ar
  20       18       19 ar
  21       19        9 ar
  22        3       20 1
  23        4       21 1
  24        5       22 1
  25       10       23 1
  26       11       24 1
  27       15       25 1
  28       16       26 1
  29       18       27 1
  30       19       28 1

@<TRIPOS>MOLECULE

  28   30
SMALL
USER_CHARGES
@<TRIPOS>ATOM
   1 F1           4.6891     1.0811     1.1475 F            1    LIG   0.0000
   2 C2           4.7809    -0.1096     0.5617 C.ar         1    LIG   0.0000
   3 C3           5.9978    -0.7826     0.5502 C.ar         1    LIG   0.0000
   4 C4           6.0977    -2.0273    -0.0617 C.ar         1    LIG   0.0000
   5 C5           4.9807    -2.5984    -0.6608 C.ar         1    LIG   0.0000
   6 C6           3.7635    -1.9253    -0.6480 C.ar         1    LIG   0.0000
   7 F7           2.6961    -2.4743    -1.2210 F            1    LIG   0.0000
   8 C8           3.6614    -0.6793    -0.0364 C.ar         1    LIG   0.0000
   9 C9           2.3938     0.0256    -0.0213 C.ar         1    LIG   0.0000
  10 C10          2.3819     1.4172    -0.0109 C.ar         1    LIG   0.0000
  11 C11          1.1713     2.1017     0.0040 C.ar         1    LIG   0.0000
  12 C12         -0.0164     1.3781     0.0095 C.ar         1    LIG   0.0000
  13 N13         -1.2390     2.0618     0.0249 N.pl3        1    LIG   0.0000
  14 N14         -1.6431     2.9069    -0.8991 N.2          1    LIG   0.0000
  15 C15         -2.8335     3.3464    -0.5623 C.2          1    LIG   0.0000
  16 C16         -3.1625     2.7168     0.6588 C.2          1    LIG   0.0000
  17 N17         -2.1457     1.9431     0.9693 N.2          1    LIG   0.0000
  18 C18         -0.0146    -0.0125    -0.0002 C.ar         1    LIG   0.0000
  19 C19          1.2008    -0.6892    -0.0164 C.ar         1    LIG   0.0000
  20 H            6.8008    -0.3715     0.9817 H            1    LIG   0.0000
  21 H            6.9726    -2.5115    -0.0707 H            1    LIG   0.0000
  22 H            5.0524    -3.4933    -1.1011 H            1    LIG   0.0000
  23 H            3.2435     1.9248    -0.0142 H            1    LIG   0.0000
  24 H            1.1551     3.1015     0.0106 H            1    LIG   0.0000
  25 H           -3.3965     3.9984    -1.0701 H            1    LIG   0.0000
  26 H           -4.0047     2.8363     1.1846 H            1    LIG   0.0000
  27 H           -0.8764    -0.5199     0.0045 H            1    LIG   0.0000
  28 H            1.2167    -1.6890    -0.0244 H            1    LIG   0.0000
@<TRIPOS>BOND
   1        1        2 1
   2        2        3 ar
   3        3        4 ar
   4        4        5 ar
   5        5        6 ar
   6        6        7 1
   7        6        8 ar
   8        8        2 ar
   9        8        9 1
  10        9       10 ar
  11       10       11 ar
  12       11       12 ar
  13       12       13 1
  14       13       14 1
  15       14       15 2
  16       15       16 1
  17       16       17 2
  18       17       13 1
  19       12       18 ar
  20       18       19 ar
  21       19        9 ar
  22        3       20 1
  23        4       21 1
  24        5       22 1
  25       10       23 1
  26       11       24 1
  27       15       25 1
  28       16       26 1
  29       18       27 1
  30       19       28 1

@<TRIPOS>MOLECULE

  28   30
SMALL
USER_CHARGES
@<TRIPOS>ATOM
   1 F1           4.6891     1.0811     1.1475 F            1    LIG   0.0000
   2 C2           4.7809    -0.1096     0.5617 C.ar         1    LIG   0.0000
   3 C3           5.9978    -0.7826     0.5502 C.ar         1    LIG   0.0000
   4 C4           6.0977    -2.0273    -0.0617 C.ar         1    LIG   0.0000
   5 C5           4.9807    -2.5984    -0.6608 C.ar         1    LIG   0.0000
   6 C6           3.7635    -1.9253    -0.6480 C.ar         1    LIG   0.0000
   7 F7           2.6961    -2.4743    -1.2210 F            1    LIG   0.0000
   8 C8           3.6614    -0.6793    -0.0364 C.ar         1    LIG   0.0000
   9 C9           2.3938     0.0256    -0.0213 C.ar         1    LIG   0.0000
  10 C10          2.3819     1.4172    -0.0109 C.ar         1    LIG   0.0000
  11 C11          1.1713     2.1017     0.0040 C.ar         1    LIG   0.0000
  12 C12         -0.0164     1.3781     0.0095 C.ar         1    LIG   0.0000
  13 N13         -1.2390     2.0618     0.0249 N.pl3        1    LIG   0.0000
  14 N14         -1.6266     2.8941     0.9673 N.2          1    LIG   0.0000
  15 C15         -2.8154     3.3514     0.6487 C.2          1    LIG   0.0000
  16 C16         -3.1643     2.7416    -0.5768 C.2          1    LIG   0.0000
  17 N17         -2.1597     1.9604    -0.9079 N.2          1    LIG   0.0000
  18 C18         -0.0146    -0.0125    -0.0002 C.ar         1    LIG   0.0000
  19 C19          1.2008    -0.6892    -0.0164 C.ar         1    LIG   0.0000
  20 H            6.8008    -0.3715     0.9817 H            1    LIG   0.0000
  21 H            6.9726    -2.5115    -0.0707 H            1    LIG   0.0000
  22 H            5.0524    -3.4933    -1.1011 H            1    LIG   0.0000
  23 H            3.2435     1.9248    -0.0142 H            1    LIG   0.0000
  24 H            1.1551     3.1015     0.0106 H            1    LIG   0.0000
  25 H           -3.3656     4.0032     1.1708 H            1    LIG   0.0000
  26 H           -4.0104     2.8774    -1.0921 H            1    LIG   0.0000
  27 H           -0.8764    -0.5199     0.0045 H            1    LIG   0.0000
  28 H            1.2167    -1.6890    -0.0244 H            1    LIG   0.0000
@<TRIPOS>BOND
   1        1        2 1
   2        2        3 ar
   3        3        4 ar
   4        4        5 ar
   5        5        6 ar
   6        6        7 1
   7        6        8 ar
   8        8        2 ar
   9        8        9 1
  10        9       10 ar
  11       10       11 ar
  12       11       12 ar
  13       12       13 1
  14       13       14 1
  15       14       15 2
  16       15       16 1
  17       16       17 2
  18       17       13 1
  19       12       18 ar
  20       18       19 ar
  21       19        9 ar
  22        3       20 1
  23        4       21 1
  24        5       22 1
  25       10       23 1
  26       11       24 1
  27       15       25 1
  28       16       26 1
  29       18       27 1
  30       19       28 1

