@<TRIPOS>MOLECULE
*****
 28 30 0 0 0
SMALL
USER_CHARGES

@<TRIPOS>ATOM
      1 F1          3.7061   -0.7117    2.3203 F       1  LIG1        0.0000
      2 C2          4.2784   -1.0261    1.1614 C.ar    1  LIG1        0.0000
      3 C3          5.4933   -1.7027    1.1512 C.ar    1  LIG1        0.0000
      4 C4          6.0948   -2.0326   -0.0584 C.ar    1  LIG1        0.0000
      5 C5          5.4808   -1.6864   -1.2566 C.ar    1  LIG1        0.0000
      6 C6          4.2650   -1.0106   -1.2459 C.ar    1  LIG1        0.0000
      7 F7          3.6791   -0.6815   -2.3937 F       1  LIG1        0.0000
      8 C8          3.6614   -0.6793   -0.0364 C.ar    1  LIG1        0.0000
      9 C9          2.3938    0.0256   -0.0213 C.ar    1  LIG1        0.0000
     10 C10         2.3819    1.4172   -0.0109 C.ar    1  LIG1        0.0000
     11 C11         1.1713    2.1017    0.0040 C.ar    1  LIG1        0.0000
     12 C12        -0.0164    1.3781    0.0095 C.ar    1  LIG1        0.0000
     13 N13        -1.2390    2.0618    0.0249 N.pl3   1  LIG1        0.0000
     14 N14        -1.3719    3.3708    0.0350 N.2     1  LIG1        0.0000
     15 C15        -2.6539    3.6541    0.0394 C.2     1  LIG1        0.0000
     16 C16        -3.3376    2.4179    0.0350 C.2     1  LIG1        0.0000
     17 N17        -2.4172    1.4788    0.0283 N.2     1  LIG1        0.0000
     18 C18        -0.0146   -0.0125   -0.0002 C.ar    1  LIG1        0.0000
     19 C19         1.2008   -0.6892   -0.0164 C.ar    1  LIG1        0.0000
     20 H           5.9342   -1.9518    2.0134 H       1  LIG1        0.0000
     21 H           6.9687   -2.5187   -0.0663 H       1  LIG1        0.0000
     22 H           5.9133   -1.9233   -2.1266 H       1  LIG1        0.0000
     23 H           3.2435    1.9248   -0.0142 H       1  LIG1        0.0000
     24 H           1.1551    3.1015    0.0106 H       1  LIG1        0.0000
     25 H          -3.0653    4.5655    0.0448 H       1  LIG1        0.0000
     26 H          -4.3285    2.2833    0.0367 H       1  LIG1        0.0000
     27 H          -0.8764   -0.5199    0.0045 H       1  LIG1        0.0000
     28 H           1.2167   -1.6890   -0.0244 H       1  LIG1        0.0000
@<TRIPOS>BOND
     1     1     2    1
     2     2     3   ar
     3     3     4   ar
     4     4     5   ar
     5     5     6   ar
     6     6     7    1
     7     6     8   ar
     8     8     2   ar
     9     8     9    1
    10     9    10   ar
    11    10    11   ar
    12    11    12   ar
    13    12    13    1
    14    13    14    1
    15    14    15    2
    16    15    16    1
    17    16    17    2
    18    17    13    1
    19    12    18   ar
    20    18    19   ar
    21    19     9   ar
    22     3    20    1
    23     4    21    1
    24     5    22    1
    25    10    23    1
    26    11    24    1
    27    15    25    1
    28    16    26    1
    29    18    27    1
    30    19    28    1
