@<TRIPOS>MOLECULE

  28   29
SMALL
USER_CHARGES
@<TRIPOS>ATOM
   1 C1           1.1333     4.6961     0.0147 C.1          1    LIG   0.0000
   2 N2           1.1502     3.5562     0.0094 N.1          1    LIG   1.0000
   3 C3           1.1720     2.0860     0.0026 C.ar         1    LIG   0.0000
   4 C4           2.3916     1.4182    -0.0132 C.ar         1    LIG   0.0000
   5 C5           2.3956     0.0272    -0.0199 C.ar         1    LIG   0.0000
   6 C6           3.7226    -0.7135    -0.0371 C.3          1    LIG   0.0000
   7 C7           1.2048    -0.6914    -0.0112 C.ar         1    LIG   0.0000
   8 C8          -0.0129    -0.0193     0.0030 C.ar         1    LIG   0.0000
   9 C9          -0.0214     1.3717     0.0103 C.ar         1    LIG   0.0000
  10 S10         -1.5356     2.2284     0.0292 S.3          1    LIG   0.0000
  11 C11         -2.7022     0.9374     0.0335 C.ar         1    LIG   0.0000
  12 C12         -3.1735     0.4348    -1.1752 C.ar         1    LIG   0.0000
  13 C13         -4.1066    -0.5968    -1.1697 C.ar         1    LIG   0.0000
  14 C14         -4.5613    -1.1173     0.0377 C.ar         1    LIG   0.0000
  15 C15         -4.0847    -0.6092     1.2421 C.ar         1    LIG   0.0000
  16 C16         -3.1515     0.4222     1.2451 C.ar         1    LIG   0.0000
  17 H            1.1184     5.6960     0.0193 H            1    LIG   0.0000
  18 H            3.2511     1.9293    -0.0198 H            1    LIG   0.0000
  19 H            3.5541    -1.6992    -0.0401 H            1    LIG   0.0000
  20 H            4.2349    -0.4604    -0.8578 H            1    LIG   0.0000
  21 H            4.2518    -0.4682     0.7751 H            1    LIG   0.0000
  22 H            1.2241    -1.6913    -0.0151 H            1    LIG   0.0000
  23 H           -0.8725    -0.5303     0.0078 H            1    LIG   0.0000
  24 H           -2.8443     0.8122    -2.0407 H            1    LIG   0.0000
  25 H           -4.4505    -0.9644    -2.0337 H            1    LIG   0.0000
  26 H           -5.2324    -1.8586     0.0400 H            1    LIG   0.0000
  27 H           -4.4139    -0.9865     2.1077 H            1    LIG   0.0000
  28 H           -2.8072     0.7896     2.1091 H            1    LIG   0.0000
@<TRIPOS>BOND
   1        1        2 3
   2        2        3 1
   3        3        4 ar
   4        4        5 ar
   5        5        6 1
   6        5        7 ar
   7        7        8 ar
   8        8        9 ar
   9        9        3 ar
  10        9       10 1
  11       10       11 1
  12       11       12 ar
  13       12       13 ar
  14       13       14 ar
  15       14       15 ar
  16       15       16 ar
  17       16       11 ar
  18        1       17 1
  19        4       18 1
  20        6       19 1
  21        6       20 1
  22        6       21 1
  23        7       22 1
  24        8       23 1
  25       12       24 1
  26       13       25 1
  27       14       26 1
  28       15       27 1
  29       16       28 1

@<TRIPOS>MOLECULE

  28   29
SMALL
USER_CHARGES
@<TRIPOS>ATOM
   1 C1           1.1333     4.6961     0.0147 C.1          1    LIG   0.0000
   2 N2           1.1502     3.5562     0.0094 N.1          1    LIG   1.0000
   3 C3           1.1720     2.0860     0.0026 C.ar         1    LIG   0.0000
   4 C4           2.3916     1.4182    -0.0132 C.ar         1    LIG   0.0000
   5 C5           2.3956     0.0272    -0.0199 C.ar         1    LIG   0.0000
   6 C6           3.7226    -0.7135    -0.0371 C.3          1    LIG   0.0000
   7 C7           1.2048    -0.6914    -0.0112 C.ar         1    LIG   0.0000
   8 C8          -0.0129    -0.0193     0.0030 C.ar         1    LIG   0.0000
   9 C9          -0.0214     1.3717     0.0103 C.ar         1    LIG   0.0000
  10 S10         -1.5356     2.2284     0.0292 S.3          1    LIG   0.0000
  11 C11         -2.6462     1.0235     0.6143 C.ar         1    LIG   0.0000
  12 C12         -3.9767     1.0625     0.2091 C.ar         1    LIG   0.0000
  13 C13         -4.8632     0.0988     0.6784 C.ar         1    LIG   0.0000
  14 C14         -4.4173    -0.8931     1.5460 C.ar         1    LIG   0.0000
  15 C15         -3.0851    -0.9252     1.9462 C.ar         1    LIG   0.0000
  16 C16         -2.1924     0.0348     1.4812 C.ar         1    LIG   0.0000
  17 H            1.1184     5.6960     0.0193 H            1    LIG   0.0000
  18 H            3.2511     1.9293    -0.0198 H            1    LIG   0.0000
  19 H            3.5541    -1.6992    -0.0401 H            1    LIG   0.0000
  20 H            4.2349    -0.4604    -0.8578 H            1    LIG   0.0000
  21 H            4.2518    -0.4682     0.7751 H            1    LIG   0.0000
  22 H            1.2241    -1.6913    -0.0151 H            1    LIG   0.0000
  23 H           -0.8725    -0.5303     0.0078 H            1    LIG   0.0000
  24 H           -4.2930     1.7776    -0.4144 H            1    LIG   0.0000
  25 H           -5.8211     0.1190     0.3921 H            1    LIG   0.0000
  26 H           -5.0560    -1.5849     1.8828 H            1    LIG   0.0000
  27 H           -2.7687    -1.6402     2.5697 H            1    LIG   0.0000
  28 H           -1.2343     0.0144     1.7671 H            1    LIG   0.0000
@<TRIPOS>BOND
   1        1        2 3
   2        2        3 1
   3        3        4 ar
   4        4        5 ar
   5        5        6 1
   6        5        7 ar
   7        7        8 ar
   8        8        9 ar
   9        9        3 ar
  10        9       10 1
  11       10       11 1
  12       11       12 ar
  13       12       13 ar
  14       13       14 ar
  15       14       15 ar
  16       15       16 ar
  17       16       11 ar
  18        1       17 1
  19        4       18 1
  20        6       19 1
  21        6       20 1
  22        6       21 1
  23        7       22 1
  24        8       23 1
  25       12       24 1
  26       13       25 1
  27       14       26 1
  28       15       27 1
  29       16       28 1

@<TRIPOS>MOLECULE

  28   29
SMALL
USER_CHARGES
@<TRIPOS>ATOM
   1 C1           1.1333     4.6961     0.0147 C.1          1    LIG   0.0000
   2 N2           1.1502     3.5562     0.0094 N.1          1    LIG   1.0000
   3 C3           1.1720     2.0860     0.0026 C.ar         1    LIG   0.0000
   4 C4           2.3916     1.4182    -0.0132 C.ar         1    LIG   0.0000
   5 C5           2.3956     0.0272    -0.0199 C.ar         1    LIG   0.0000
   6 C6           3.7226    -0.7135    -0.0371 C.3          1    LIG   0.0000
   7 C7           1.2048    -0.6914    -0.0112 C.ar         1    LIG   0.0000
   8 C8          -0.0129    -0.0193     0.0030 C.ar         1    LIG   0.0000
   9 C9          -0.0214     1.3717     0.0103 C.ar         1    LIG   0.0000
  10 S10         -1.5356     2.2284     0.0292 S.3          1    LIG   0.0000
  11 C11         -2.6573     1.0296    -0.5472 C.ar         1    LIG   0.0000
  12 C12         -3.9797     1.0642    -0.1164 C.ar         1    LIG   0.0000
  13 C13         -4.8748     0.1046    -0.5778 C.ar         1    LIG   0.0000
  14 C14         -4.4451    -0.8795    -1.4623 C.ar         1    LIG   0.0000
  15 C15         -3.1209    -0.9070    -1.8884 C.ar         1    LIG   0.0000
  16 C16         -2.2197     0.0491    -1.4318 C.ar         1    LIG   0.0000
  17 H            1.1184     5.6960     0.0193 H            1    LIG   0.0000
  18 H            3.2511     1.9293    -0.0198 H            1    LIG   0.0000
  19 H            3.5541    -1.6992    -0.0401 H            1    LIG   0.0000
  20 H            4.2349    -0.4604    -0.8578 H            1    LIG   0.0000
  21 H            4.2518    -0.4682     0.7751 H            1    LIG   0.0000
  22 H            1.2241    -1.6913    -0.0151 H            1    LIG   0.0000
  23 H           -0.8725    -0.5303     0.0078 H            1    LIG   0.0000
  24 H           -4.2843     1.7732     0.5197 H            1    LIG   0.0000
  25 H           -5.8273     0.1222    -0.2738 H            1    LIG   0.0000
  26 H           -5.0896    -1.5690    -1.7927 H            1    LIG   0.0000
  27 H           -2.8162    -1.6160    -2.5245 H            1    LIG   0.0000
  28 H           -1.2673     0.0319    -1.7361 H            1    LIG   0.0000
@<TRIPOS>BOND
   1        1        2 3
   2        2        3 1
   3        3        4 ar
   4        4        5 ar
   5        5        6 1
   6        5        7 ar
   7        7        8 ar
   8        8        9 ar
   9        9        3 ar
  10        9       10 1
  11       10       11 1
  12       11       12 ar
  13       12       13 ar
  14       13       14 ar
  15       14       15 ar
  16       15       16 ar
  17       16       11 ar
  18        1       17 1
  19        4       18 1
  20        6       19 1
  21        6       20 1
  22        6       21 1
  23        7       22 1
  24        8       23 1
  25       12       24 1
  26       13       25 1
  27       14       26 1
  28       15       27 1
  29       16       28 1

@<TRIPOS>MOLECULE

  28   29
SMALL
USER_CHARGES
@<TRIPOS>ATOM
   1 C1           1.1333     4.6961     0.0147 C.1          1    LIG   0.0000
   2 N2           1.1502     3.5562     0.0094 N.1          1    LIG   1.0000
   3 C3           1.1720     2.0860     0.0026 C.ar         1    LIG   0.0000
   4 C4           2.3916     1.4182    -0.0132 C.ar         1    LIG   0.0000
   5 C5           2.3956     0.0272    -0.0199 C.ar         1    LIG   0.0000
   6 C6           3.7226    -0.7135    -0.0371 C.3          1    LIG   0.0000
   7 C7           1.2048    -0.6914    -0.0112 C.ar         1    LIG   0.0000
   8 C8          -0.0129    -0.0193     0.0030 C.ar         1    LIG   0.0000
   9 C9          -0.0214     1.3717     0.0103 C.ar         1    LIG   0.0000
  10 S10         -1.5356     2.2284     0.0292 S.3          1    LIG   0.0000
  11 C11         -2.4962     1.2775     1.1249 C.ar         1    LIG   0.0000
  12 C12         -3.2668     0.2303     0.6298 C.ar         1    LIG   0.0000
  13 C13         -4.0345    -0.5285     1.5072 C.ar         1    LIG   0.0000
  14 C14         -4.0281    -0.2373     2.8676 C.ar         1    LIG   0.0000
  15 C15         -3.2545     0.8115     3.3547 C.ar         1    LIG   0.0000
  16 C16         -2.4839     1.5748     2.4838 C.ar         1    LIG   0.0000
  17 H            1.1184     5.6960     0.0193 H            1    LIG   0.0000
  18 H            3.2511     1.9293    -0.0198 H            1    LIG   0.0000
  19 H            3.5541    -1.6992    -0.0401 H            1    LIG   0.0000
  20 H            4.2349    -0.4604    -0.8578 H            1    LIG   0.0000
  21 H            4.2518    -0.4682     0.7751 H            1    LIG   0.0000
  22 H            1.2241    -1.6913    -0.0151 H            1    LIG   0.0000
  23 H           -0.8725    -0.5303     0.0078 H            1    LIG   0.0000
  24 H           -3.2687     0.0247    -0.3489 H            1    LIG   0.0000
  25 H           -4.5911    -1.2833     1.1600 H            1    LIG   0.0000
  26 H           -4.5810    -0.7834     3.4970 H            1    LIG   0.0000
  27 H           -3.2525     1.0171     4.3334 H            1    LIG   0.0000
  28 H           -1.9270     2.3293     2.8310 H            1    LIG   0.0000
@<TRIPOS>BOND
   1        1        2 3
   2        2        3 1
   3        3        4 ar
   4        4        5 ar
   5        5        6 1
   6        5        7 ar
   7        7        8 ar
   8        8        9 ar
   9        9        3 ar
  10        9       10 1
  11       10       11 1
  12       11       12 ar
  13       12       13 ar
  14       13       14 ar
  15       14       15 ar
  16       15       16 ar
  17       16       11 ar
  18        1       17 1
  19        4       18 1
  20        6       19 1
  21        6       20 1
  22        6       21 1
  23        7       22 1
  24        8       23 1
  25       12       24 1
  26       13       25 1
  27       14       26 1
  28       15       27 1
  29       16       28 1

@<TRIPOS>MOLECULE

  28   29
SMALL
USER_CHARGES
@<TRIPOS>ATOM
   1 C1           1.1333     4.6961     0.0147 C.1          1    LIG   0.0000
   2 N2           1.1502     3.5562     0.0094 N.1          1    LIG   1.0000
   3 C3           1.1720     2.0860     0.0026 C.ar         1    LIG   0.0000
   4 C4           2.3916     1.4182    -0.0132 C.ar         1    LIG   0.0000
   5 C5           2.3956     0.0272    -0.0199 C.ar         1    LIG   0.0000
   6 C6           3.7226    -0.7135    -0.0371 C.3          1    LIG   0.0000
   7 C7           1.2048    -0.6914    -0.0112 C.ar         1    LIG   0.0000
   8 C8          -0.0129    -0.0193     0.0030 C.ar         1    LIG   0.0000
   9 C9          -0.0214     1.3717     0.0103 C.ar         1    LIG   0.0000
  10 S10         -1.5356     2.2284     0.0292 S.3          1    LIG   0.0000
  11 C11         -2.5169     1.2889    -1.0579 C.ar         1    LIG   0.0000
  12 C12         -2.5294     1.6006    -2.4138 C.ar         1    LIG   0.0000
  13 C13         -3.3150     0.8487    -3.2813 C.ar         1    LIG   0.0000
  14 C14         -4.0801    -0.2047    -2.7911 C.ar         1    LIG   0.0000
  15 C15         -4.0619    -0.5100    -1.4338 C.ar         1    LIG   0.0000
  16 C16         -3.2788     0.2369    -0.5599 C.ar         1    LIG   0.0000
  17 H            1.1184     5.6960     0.0193 H            1    LIG   0.0000
  18 H            3.2511     1.9293    -0.0198 H            1    LIG   0.0000
  19 H            3.5541    -1.6992    -0.0401 H            1    LIG   0.0000
  20 H            4.2349    -0.4604    -0.8578 H            1    LIG   0.0000
  21 H            4.2518    -0.4682     0.7751 H            1    LIG   0.0000
  22 H            1.2241    -1.6913    -0.0151 H            1    LIG   0.0000
  23 H           -0.8725    -0.5303     0.0078 H            1    LIG   0.0000
  24 H           -1.9781     2.3588    -2.7619 H            1    LIG   0.0000
  25 H           -3.3297     1.0654    -4.2575 H            1    LIG   0.0000
  26 H           -4.6448    -0.7439    -3.4160 H            1    LIG   0.0000
  27 H           -4.6131    -1.2683    -1.0857 H            1    LIG   0.0000
  28 H           -3.2637     0.0200     0.4162 H            1    LIG   0.0000
@<TRIPOS>BOND
   1        1        2 3
   2        2        3 1
   3        3        4 ar
   4        4        5 ar
   5        5        6 1
   6        5        7 ar
   7        7        8 ar
   8        8        9 ar
   9        9        3 ar
  10        9       10 1
  11       10       11 1
  12       11       12 ar
  13       12       13 ar
  14       13       14 ar
  15       14       15 ar
  16       15       16 ar
  17       16       11 ar
  18        1       17 1
  19        4       18 1
  20        6       19 1
  21        6       20 1
  22        6       21 1
  23        7       22 1
  24        8       23 1
  25       12       24 1
  26       13       25 1
  27       14       26 1
  28       15       27 1
  29       16       28 1

@<TRIPOS>MOLECULE

  28   29
SMALL
USER_CHARGES
@<TRIPOS>ATOM
   1 C1           1.1333     4.6961     0.0147 C.1          1    LIG   0.0000
   2 N2           1.1502     3.5562     0.0094 N.1          1    LIG   1.0000
   3 C3           1.1720     2.0860     0.0026 C.ar         1    LIG   0.0000
   4 C4           2.3916     1.4182    -0.0132 C.ar         1    LIG   0.0000
   5 C5           2.3956     0.0272    -0.0199 C.ar         1    LIG   0.0000
   6 C6           3.7226    -0.7135    -0.0371 C.3          1    LIG   0.0000
   7 C7           1.2048    -0.6914    -0.0112 C.ar         1    LIG   0.0000
   8 C8          -0.0129    -0.0193     0.0030 C.ar         1    LIG   0.0000
   9 C9          -0.0214     1.3717     0.0103 C.ar         1    LIG   0.0000
  10 S10         -1.5356     2.2284     0.0292 S.3          1    LIG   0.0000
  11 C11         -1.7367     2.6807    -1.6389 C.ar         1    LIG   0.0000
  12 C12         -2.8641     3.3994    -2.0236 C.ar         1    LIG   0.0000
  13 C13         -3.0234     3.7596    -3.3577 C.ar         1    LIG   0.0000
  14 C14         -2.0600     3.4007    -4.2951 C.ar         1    LIG   0.0000
  15 C15         -0.9353     2.6821    -3.9021 C.ar         1    LIG   0.0000
  16 C16         -0.7686     2.3184    -2.5699 C.ar         1    LIG   0.0000
  17 H            1.1184     5.6960     0.0193 H            1    LIG   0.0000
  18 H            3.2511     1.9293    -0.0198 H            1    LIG   0.0000
  19 H            3.5541    -1.6992    -0.0401 H            1    LIG   0.0000
  20 H            4.2349    -0.4604    -0.8578 H            1    LIG   0.0000
  21 H            4.2518    -0.4682     0.7751 H            1    LIG   0.0000
  22 H            1.2241    -1.6913    -0.0151 H            1    LIG   0.0000
  23 H           -0.8725    -0.5303     0.0078 H            1    LIG   0.0000
  24 H           -3.5543     3.6550    -1.3466 H            1    LIG   0.0000
  25 H           -3.8304     4.2765    -3.6431 H            1    LIG   0.0000
  26 H           -2.1763     3.6599    -5.2539 H            1    LIG   0.0000
  27 H           -0.2451     2.4265    -4.5791 H            1    LIG   0.0000
  28 H            0.0387     1.8018    -2.2844 H            1    LIG   0.0000
@<TRIPOS>BOND
   1        1        2 3
   2        2        3 1
   3        3        4 ar
   4        4        5 ar
   5        5        6 1
   6        5        7 ar
   7        7        8 ar
   8        8        9 ar
   9        9        3 ar
  10        9       10 1
  11       10       11 1
  12       11       12 ar
  13       12       13 ar
  14       13       14 ar
  15       14       15 ar
  16       15       16 ar
  17       16       11 ar
  18        1       17 1
  19        4       18 1
  20        6       19 1
  21        6       20 1
  22        6       21 1
  23        7       22 1
  24        8       23 1
  25       12       24 1
  26       13       25 1
  27       14       26 1
  28       15       27 1
  29       16       28 1

@<TRIPOS>MOLECULE

  28   29
SMALL
USER_CHARGES
@<TRIPOS>ATOM
   1 C1           1.1333     4.6961     0.0147 C.1          1    LIG   0.0000
   2 N2           1.1502     3.5562     0.0094 N.1          1    LIG   1.0000
   3 C3           1.1720     2.0860     0.0026 C.ar         1    LIG   0.0000
   4 C4           2.3916     1.4182    -0.0132 C.ar         1    LIG   0.0000
   5 C5           2.3956     0.0272    -0.0199 C.ar         1    LIG   0.0000
   6 C6           3.7226    -0.7135    -0.0371 C.3          1    LIG   0.0000
   7 C7           1.2048    -0.6914    -0.0112 C.ar         1    LIG   0.0000
   8 C8          -0.0129    -0.0193     0.0030 C.ar         1    LIG   0.0000
   9 C9          -0.0214     1.3717     0.0103 C.ar         1    LIG   0.0000
  10 S10         -1.5356     2.2284     0.0292 S.3          1    LIG   0.0000
  11 C11         -1.7367     2.6807    -1.6389 C.ar         1    LIG   0.0000
  12 C12         -1.2269     3.8954    -2.0865 C.ar         1    LIG   0.0000
  13 C13         -1.3891     4.2556    -3.4202 C.ar         1    LIG   0.0000
  14 C14         -2.0570     3.4041    -4.2945 C.ar         1    LIG   0.0000
  15 C15         -2.5636     2.1910    -3.8390 C.ar         1    LIG   0.0000
  16 C16         -2.4053     1.8236    -2.5068 C.ar         1    LIG   0.0000
  17 H            1.1184     5.6960     0.0193 H            1    LIG   0.0000
  18 H            3.2511     1.9293    -0.0198 H            1    LIG   0.0000
  19 H            3.5541    -1.6992    -0.0401 H            1    LIG   0.0000
  20 H            4.2349    -0.4604    -0.8578 H            1    LIG   0.0000
  21 H            4.2518    -0.4682     0.7751 H            1    LIG   0.0000
  22 H            1.2241    -1.6913    -0.0151 H            1    LIG   0.0000
  23 H           -0.8725    -0.5303     0.0078 H            1    LIG   0.0000
  24 H           -0.7478     4.5046    -1.4545 H            1    LIG   0.0000
  25 H           -1.0256     5.1266    -3.7506 H            1    LIG   0.0000
  26 H           -2.1732     3.6647    -5.2529 H            1    LIG   0.0000
  27 H           -3.0427     1.5818    -4.4709 H            1    LIG   0.0000
  28 H           -2.7684     0.9523    -2.1764 H            1    LIG   0.0000
@<TRIPOS>BOND
   1        1        2 3
   2        2        3 1
   3        3        4 ar
   4        4        5 ar
   5        5        6 1
   6        5        7 ar
   7        7        8 ar
   8        8        9 ar
   9        9        3 ar
  10        9       10 1
  11       10       11 1
  12       11       12 ar
  13       12       13 ar
  14       13       14 ar
  15       14       15 ar
  16       15       16 ar
  17       16       11 ar
  18        1       17 1
  19        4       18 1
  20        6       19 1
  21        6       20 1
  22        6       21 1
  23        7       22 1
  24        8       23 1
  25       12       24 1
  26       13       25 1
  27       14       26 1
  28       15       27 1
  29       16       28 1

@<TRIPOS>MOLECULE

  28   29
SMALL
USER_CHARGES
@<TRIPOS>ATOM
   1 C1           1.1333     4.6961     0.0147 C.1          1    LIG   0.0000
   2 N2           1.1502     3.5562     0.0094 N.1          1    LIG   1.0000
   3 C3           1.1720     2.0860     0.0026 C.ar         1    LIG   0.0000
   4 C4           2.3916     1.4182    -0.0132 C.ar         1    LIG   0.0000
   5 C5           2.3956     0.0272    -0.0199 C.ar         1    LIG   0.0000
   6 C6           3.7226    -0.7135    -0.0371 C.3          1    LIG   0.0000
   7 C7           1.2048    -0.6914    -0.0112 C.ar         1    LIG   0.0000
   8 C8          -0.0129    -0.0193     0.0030 C.ar         1    LIG   0.0000
   9 C9          -0.0214     1.3717     0.0103 C.ar         1    LIG   0.0000
  10 S10         -1.5356     2.2284     0.0292 S.3          1    LIG   0.0000
  11 C11         -2.1671     1.9182    -1.5622 C.ar         1    LIG   0.0000
  12 C12         -2.7166     2.9635    -2.2979 C.ar         1    LIG   0.0000
  13 C13         -3.2215     2.7134    -3.5697 C.ar         1    LIG   0.0000
  14 C14         -3.1751     1.4265    -4.0960 C.ar         1    LIG   0.0000
  15 C15         -2.6237     0.3867    -3.3539 C.ar         1    LIG   0.0000
  16 C16         -2.1165     0.6287    -2.0815 C.ar         1    LIG   0.0000
  17 H            1.1184     5.6960     0.0193 H            1    LIG   0.0000
  18 H            3.2511     1.9293    -0.0198 H            1    LIG   0.0000
  19 H            3.5541    -1.6992    -0.0401 H            1    LIG   0.0000
  20 H            4.2349    -0.4604    -0.8578 H            1    LIG   0.0000
  21 H            4.2518    -0.4682     0.7751 H            1    LIG   0.0000
  22 H            1.2241    -1.6913    -0.0151 H            1    LIG   0.0000
  23 H           -0.8725    -0.5303     0.0078 H            1    LIG   0.0000
  24 H           -2.7483     3.8869    -1.9155 H            1    LIG   0.0000
  25 H           -3.6180     3.4588    -4.1056 H            1    LIG   0.0000
  26 H           -3.5390     1.2482    -5.0103 H            1    LIG   0.0000
  27 H           -2.5920    -0.5368    -3.7362 H            1    LIG   0.0000
  28 H           -1.7197    -0.1166    -1.5456 H            1    LIG   0.0000
@<TRIPOS>BOND
   1        1        2 3
   2        2        3 1
   3        3        4 ar
   4        4        5 ar
   5        5        6 1
   6        5        7 ar
   7        7        8 ar
   8        8        9 ar
   9        9        3 ar
  10        9       10 1
  11       10       11 1
  12       11       12 ar
  13       12       13 ar
  14       13       14 ar
  15       14       15 ar
  16       15       16 ar
  17       16       11 ar
  18        1       17 1
  19        4       18 1
  20        6       19 1
  21        6       20 1
  22        6       21 1
  23        7       22 1
  24        8       23 1
  25       12       24 1
  26       13       25 1
  27       14       26 1
  28       15       27 1
  29       16       28 1

@<TRIPOS>MOLECULE

  28   29
SMALL
USER_CHARGES
@<TRIPOS>ATOM
   1 C1           1.1333     4.6961     0.0147 C.1          1    LIG   0.0000
   2 N2           1.1502     3.5562     0.0094 N.1          1    LIG   1.0000
   3 C3           1.1720     2.0860     0.0026 C.ar         1    LIG   0.0000
   4 C4           2.3916     1.4182    -0.0132 C.ar         1    LIG   0.0000
   5 C5           2.3956     0.0272    -0.0199 C.ar         1    LIG   0.0000
   6 C6           3.7226    -0.7135    -0.0371 C.3          1    LIG   0.0000
   7 C7           1.2048    -0.6914    -0.0112 C.ar         1    LIG   0.0000
   8 C8          -0.0129    -0.0193     0.0030 C.ar         1    LIG   0.0000
   9 C9          -0.0214     1.3717     0.0103 C.ar         1    LIG   0.0000
  10 S10         -1.5356     2.2284     0.0292 S.3          1    LIG   0.0000
  11 C11         -2.1671     1.9182    -1.5622 C.ar         1    LIG   0.0000
  12 C12         -3.5032     1.5603    -1.7122 C.ar         1    LIG   0.0000
  13 C13         -4.0061     1.3121    -2.9851 C.ar         1    LIG   0.0000
  14 C14         -3.1748     1.4219    -4.0953 C.ar         1    LIG   0.0000
  15 C15         -1.8399     1.7805    -3.9367 C.ar         1    LIG   0.0000
  16 C16         -1.3295     2.0306    -2.6671 C.ar         1    LIG   0.0000
  17 H            1.1184     5.6960     0.0193 H            1    LIG   0.0000
  18 H            3.2511     1.9293    -0.0198 H            1    LIG   0.0000
  19 H            3.5541    -1.6992    -0.0401 H            1    LIG   0.0000
  20 H            4.2349    -0.4604    -0.8578 H            1    LIG   0.0000
  21 H            4.2518    -0.4682     0.7751 H            1    LIG   0.0000
  22 H            1.2241    -1.6913    -0.0151 H            1    LIG   0.0000
  23 H           -0.8725    -0.5303     0.0078 H            1    LIG   0.0000
  24 H           -4.0971     1.4822    -0.9115 H            1    LIG   0.0000
  25 H           -4.9653     1.0547    -3.1023 H            1    LIG   0.0000
  26 H           -3.5377     1.2426    -5.0097 H            1    LIG   0.0000
  27 H           -1.2459     1.8586    -4.7374 H            1    LIG   0.0000
  28 H           -0.3704     2.2884    -2.5499 H            1    LIG   0.0000
@<TRIPOS>BOND
   1        1        2 3
   2        2        3 1
   3        3        4 ar
   4        4        5 ar
   5        5        6 1
   6        5        7 ar
   7        7        8 ar
   8        8        9 ar
   9        9        3 ar
  10        9       10 1
  11       10       11 1
  12       11       12 ar
  13       12       13 ar
  14       13       14 ar
  15       14       15 ar
  16       15       16 ar
  17       16       11 ar
  18        1       17 1
  19        4       18 1
  20        6       19 1
  21        6       20 1
  22        6       21 1
  23        7       22 1
  24        8       23 1
  25       12       24 1
  26       13       25 1
  27       14       26 1
  28       15       27 1
  29       16       28 1

@<TRIPOS>MOLECULE

  28   29
SMALL
USER_CHARGES
@<TRIPOS>ATOM
   1 C1           1.1333     4.6961     0.0147 C.1          1    LIG   0.0000
   2 N2           1.1502     3.5562     0.0094 N.1          1    LIG   1.0000
   3 C3           1.1720     2.0860     0.0026 C.ar         1    LIG   0.0000
   4 C4           2.3916     1.4182    -0.0132 C.ar         1    LIG   0.0000
   5 C5           2.3956     0.0272    -0.0199 C.ar         1    LIG   0.0000
   6 C6           3.7226    -0.7135    -0.0371 C.3          1    LIG   0.0000
   7 C7           1.2048    -0.6914    -0.0112 C.ar         1    LIG   0.0000
   8 C8          -0.0129    -0.0193     0.0030 C.ar         1    LIG   0.0000
   9 C9          -0.0214     1.3717     0.0103 C.ar         1    LIG   0.0000
  10 S10         -1.5356     2.2284     0.0292 S.3          1    LIG   0.0000
  11 C11         -1.7049     2.6632     1.7055 C.ar         1    LIG   0.0000
  12 C12         -2.8247     3.3778     2.1190 C.ar         1    LIG   0.0000
  13 C13         -2.9580     3.7250     3.4594 C.ar         1    LIG   0.0000
  14 C14         -1.9759     3.3584     4.3741 C.ar         1    LIG   0.0000
  15 C15         -0.8591     2.6437     3.9524 C.ar         1    LIG   0.0000
  16 C16         -0.7186     2.2925     2.6138 C.ar         1    LIG   0.0000
  17 H            1.1184     5.6960     0.0193 H            1    LIG   0.0000
  18 H            3.2511     1.9293    -0.0198 H            1    LIG   0.0000
  19 H            3.5541    -1.6992    -0.0401 H            1    LIG   0.0000
  20 H            4.2349    -0.4604    -0.8578 H            1    LIG   0.0000
  21 H            4.2518    -0.4682     0.7751 H            1    LIG   0.0000
  22 H            1.2241    -1.6913    -0.0151 H            1    LIG   0.0000
  23 H           -0.8725    -0.5303     0.0078 H            1    LIG   0.0000
  24 H           -3.5281     3.6396     1.4581 H            1    LIG   0.0000
  25 H           -3.7598     4.2383     3.7656 H            1    LIG   0.0000
  26 H           -2.0729     3.6093     5.3372 H            1    LIG   0.0000
  27 H           -0.1558     2.3819     4.6132 H            1    LIG   0.0000
  28 H            0.0829     1.7789     2.3077 H            1    LIG   0.0000
@<TRIPOS>BOND
   1        1        2 3
   2        2        3 1
   3        3        4 ar
   4        4        5 ar
   5        5        6 1
   6        5        7 ar
   7        7        8 ar
   8        8        9 ar
   9        9        3 ar
  10        9       10 1
  11       10       11 1
  12       11       12 ar
  13       12       13 ar
  14       13       14 ar
  15       14       15 ar
  16       15       16 ar
  17       16       11 ar
  18        1       17 1
  19        4       18 1
  20        6       19 1
  21        6       20 1
  22        6       21 1
  23        7       22 1
  24        8       23 1
  25       12       24 1
  26       13       25 1
  27       14       26 1
  28       15       27 1
  29       16       28 1

@<TRIPOS>MOLECULE

  28   29
SMALL
USER_CHARGES
@<TRIPOS>ATOM
   1 C1           1.1333     4.6961     0.0147 C.1          1    LIG   0.0000
   2 N2           1.1502     3.5562     0.0094 N.1          1    LIG   1.0000
   3 C3           1.1720     2.0860     0.0026 C.ar         1    LIG   0.0000
   4 C4           2.3916     1.4182    -0.0132 C.ar         1    LIG   0.0000
   5 C5           2.3956     0.0272    -0.0199 C.ar         1    LIG   0.0000
   6 C6           3.7226    -0.7135    -0.0371 C.3          1    LIG   0.0000
   7 C7           1.2048    -0.6914    -0.0112 C.ar         1    LIG   0.0000
   8 C8          -0.0129    -0.0193     0.0030 C.ar         1    LIG   0.0000
   9 C9          -0.0214     1.3717     0.0103 C.ar         1    LIG   0.0000
  10 S10         -1.5356     2.2284     0.0292 S.3          1    LIG   0.0000
  11 C11         -1.7049     2.6632     1.7055 C.ar         1    LIG   0.0000
  12 C12         -2.3566     1.7960     2.5766 C.ar         1    LIG   0.0000
  13 C13         -2.4915     2.1456     3.9162 C.ar         1    LIG   0.0000
  14 C14         -1.9773     3.3541     4.3751 C.ar         1    LIG   0.0000
  15 C15         -1.3267     4.2157     3.4974 C.ar         1    LIG   0.0000
  16 C16         -1.1875     3.8733     2.1564 C.ar         1    LIG   0.0000
  17 H            1.1184     5.6960     0.0193 H            1    LIG   0.0000
  18 H            3.2511     1.9293    -0.0198 H            1    LIG   0.0000
  19 H            3.5541    -1.6992    -0.0401 H            1    LIG   0.0000
  20 H            4.2349    -0.4604    -0.8578 H            1    LIG   0.0000
  21 H            4.2518    -0.4682     0.7751 H            1    LIG   0.0000
  22 H            1.2241    -1.6913    -0.0151 H            1    LIG   0.0000
  23 H           -0.8725    -0.5303     0.0078 H            1    LIG   0.0000
  24 H           -2.7251     0.9285     2.2424 H            1    LIG   0.0000
  25 H           -2.9582     1.5282     4.5495 H            1    LIG   0.0000
  26 H           -2.0755     3.6042     5.3383 H            1    LIG   0.0000
  27 H           -0.9582     5.0832     3.8315 H            1    LIG   0.0000
  28 H           -0.7205     4.4904     1.5232 H            1    LIG   0.0000
@<TRIPOS>BOND
   1        1        2 3
   2        2        3 1
   3        3        4 ar
   4        4        5 ar
   5        5        6 1
   6        5        7 ar
   7        7        8 ar
   8        8        9 ar
   9        9        3 ar
  10        9       10 1
  11       10       11 1
  12       11       12 ar
  13       12       13 ar
  14       13       14 ar
  15       14       15 ar
  16       15       16 ar
  17       16       11 ar
  18        1       17 1
  19        4       18 1
  20        6       19 1
  21        6       20 1
  22        6       21 1
  23        7       22 1
  24        8       23 1
  25       12       24 1
  26       13       25 1
  27       14       26 1
  28       15       27 1
  29       16       28 1

@<TRIPOS>MOLECULE

  28   29
SMALL
USER_CHARGES
@<TRIPOS>ATOM
   1 C1           1.1333     4.6961     0.0147 C.1          1    LIG   0.0000
   2 N2           1.1502     3.5562     0.0094 N.1          1    LIG   1.0000
   3 C3           1.1720     2.0860     0.0026 C.ar         1    LIG   0.0000
   4 C4           2.3916     1.4182    -0.0132 C.ar         1    LIG   0.0000
   5 C5           2.3956     0.0272    -0.0199 C.ar         1    LIG   0.0000
   6 C6           3.7226    -0.7135    -0.0371 C.3          1    LIG   0.0000
   7 C7           1.2048    -0.6914    -0.0112 C.ar         1    LIG   0.0000
   8 C8          -0.0129    -0.0193     0.0030 C.ar         1    LIG   0.0000
   9 C9          -0.0214     1.3717     0.0103 C.ar         1    LIG   0.0000
  10 S10         -1.5356     2.2284     0.0292 S.3          1    LIG   0.0000
  11 C11         -1.3161     3.3585     1.3339 C.ar         1    LIG   0.0000
  12 C12         -1.0618     2.8841     2.6169 C.ar         1    LIG   0.0000
  13 C13         -0.8872     3.7890     3.6587 C.ar         1    LIG   0.0000
  14 C14         -0.9679     5.1561     3.4138 C.ar         1    LIG   0.0000
  15 C15         -1.2223     5.6224     2.1278 C.ar         1    LIG   0.0000
  16 C16         -1.3979     4.7239     1.0806 C.ar         1    LIG   0.0000
  17 H            1.1184     5.6960     0.0193 H            1    LIG   0.0000
  18 H            3.2511     1.9293    -0.0198 H            1    LIG   0.0000
  19 H            3.5541    -1.6992    -0.0401 H            1    LIG   0.0000
  20 H            4.2349    -0.4604    -0.8578 H            1    LIG   0.0000
  21 H            4.2518    -0.4682     0.7751 H            1    LIG   0.0000
  22 H            1.2241    -1.6913    -0.0151 H            1    LIG   0.0000
  23 H           -0.8725    -0.5303     0.0078 H            1    LIG   0.0000
  24 H           -1.0050     1.9006     2.7886 H            1    LIG   0.0000
  25 H           -0.7037     3.4569     4.5839 H            1    LIG   0.0000
  26 H           -0.8426     5.8054     4.1639 H            1    LIG   0.0000
  27 H           -1.2791     6.6059     1.9560 H            1    LIG   0.0000
  28 H           -1.5810     5.0560     0.1552 H            1    LIG   0.0000
@<TRIPOS>BOND
   1        1        2 3
   2        2        3 1
   3        3        4 ar
   4        4        5 ar
   5        5        6 1
   6        5        7 ar
   7        7        8 ar
   8        8        9 ar
   9        9        3 ar
  10        9       10 1
  11       10       11 1
  12       11       12 ar
  13       12       13 ar
  14       13       14 ar
  15       14       15 ar
  16       15       16 ar
  17       16       11 ar
  18        1       17 1
  19        4       18 1
  20        6       19 1
  21        6       20 1
  22        6       21 1
  23        7       22 1
  24        8       23 1
  25       12       24 1
  26       13       25 1
  27       14       26 1
  28       15       27 1
  29       16       28 1

@<TRIPOS>MOLECULE

  28   29
SMALL
USER_CHARGES
@<TRIPOS>ATOM
   1 C1           1.1333     4.6961     0.0147 C.1          1    LIG   0.0000
   2 N2           1.1502     3.5562     0.0094 N.1          1    LIG   1.0000
   3 C3           1.1720     2.0860     0.0026 C.ar         1    LIG   0.0000
   4 C4           2.3916     1.4182    -0.0132 C.ar         1    LIG   0.0000
   5 C5           2.3956     0.0272    -0.0199 C.ar         1    LIG   0.0000
   6 C6           3.7226    -0.7135    -0.0371 C.3          1    LIG   0.0000
   7 C7           1.2048    -0.6914    -0.0112 C.ar         1    LIG   0.0000
   8 C8          -0.0129    -0.0193     0.0030 C.ar         1    LIG   0.0000
   9 C9          -0.0214     1.3717     0.0103 C.ar         1    LIG   0.0000
  10 S10         -1.5356     2.2284     0.0292 S.3          1    LIG   0.0000
  11 C11         -2.1368     1.9015     1.6290 C.ar         1    LIG   0.0000
  12 C12         -2.9456     2.8395     2.2627 C.ar         1    LIG   0.0000
  13 C13         -3.4248     2.5767     3.5419 C.ar         1    LIG   0.0000
  14 C14         -3.0940     1.3841     4.1774 C.ar         1    LIG   0.0000
  15 C15         -2.2848     0.4512     3.5366 C.ar         1    LIG   0.0000
  16 C16         -1.8018     0.7065     2.2573 C.ar         1    LIG   0.0000
  17 H            1.1184     5.6960     0.0193 H            1    LIG   0.0000
  18 H            3.2511     1.9293    -0.0198 H            1    LIG   0.0000
  19 H            3.5541    -1.6992    -0.0401 H            1    LIG   0.0000
  20 H            4.2349    -0.4604    -0.8578 H            1    LIG   0.0000
  21 H            4.2518    -0.4682     0.7751 H            1    LIG   0.0000
  22 H            1.2241    -1.6913    -0.0151 H            1    LIG   0.0000
  23 H           -0.8725    -0.5303     0.0078 H            1    LIG   0.0000
  24 H           -3.1806     3.6957     1.8025 H            1    LIG   0.0000
  25 H           -4.0071     3.2451     4.0048 H            1    LIG   0.0000
  26 H           -3.4389     1.1969     5.0972 H            1    LIG   0.0000
  27 H           -2.0498    -0.4049     3.9968 H            1    LIG   0.0000
  28 H           -1.2199     0.0380     1.7942 H            1    LIG   0.0000
@<TRIPOS>BOND
   1        1        2 3
   2        2        3 1
   3        3        4 ar
   4        4        5 ar
   5        5        6 1
   6        5        7 ar
   7        7        8 ar
   8        8        9 ar
   9        9        3 ar
  10        9       10 1
  11       10       11 1
  12       11       12 ar
  13       12       13 ar
  14       13       14 ar
  15       14       15 ar
  16       15       16 ar
  17       16       11 ar
  18        1       17 1
  19        4       18 1
  20        6       19 1
  21        6       20 1
  22        6       21 1
  23        7       22 1
  24        8       23 1
  25       12       24 1
  26       13       25 1
  27       14       26 1
  28       15       27 1
  29       16       28 1

@<TRIPOS>MOLECULE

  28   29
SMALL
USER_CHARGES
@<TRIPOS>ATOM
   1 C1           1.1333     4.6961     0.0147 C.1          1    LIG   0.0000
   2 N2           1.1502     3.5562     0.0094 N.1          1    LIG   1.0000
   3 C3           1.1720     2.0860     0.0026 C.ar         1    LIG   0.0000
   4 C4           2.3916     1.4182    -0.0132 C.ar         1    LIG   0.0000
   5 C5           2.3956     0.0272    -0.0199 C.ar         1    LIG   0.0000
   6 C6           3.7226    -0.7135    -0.0371 C.3          1    LIG   0.0000
   7 C7           1.2048    -0.6914    -0.0112 C.ar         1    LIG   0.0000
   8 C8          -0.0129    -0.0193     0.0030 C.ar         1    LIG   0.0000
   9 C9          -0.0214     1.3717     0.0103 C.ar         1    LIG   0.0000
  10 S10         -1.5356     2.2284     0.0292 S.3          1    LIG   0.0000
  11 C11         -2.1368     1.9015     1.6290 C.ar         1    LIG   0.0000
  12 C12         -3.4699     1.5420     1.8006 C.ar         1    LIG   0.0000
  13 C13         -3.9488     1.2816     3.0803 C.ar         1    LIG   0.0000
  14 C14         -3.0971     1.3821     4.1758 C.ar         1    LIG   0.0000
  15 C15         -1.7653     1.7421     3.9956 C.ar         1    LIG   0.0000
  16 C16         -1.2786     2.0038     2.7190 C.ar         1    LIG   0.0000
  17 H            1.1184     5.6960     0.0193 H            1    LIG   0.0000
  18 H            3.2511     1.9293    -0.0198 H            1    LIG   0.0000
  19 H            3.5541    -1.6992    -0.0401 H            1    LIG   0.0000
  20 H            4.2349    -0.4604    -0.8578 H            1    LIG   0.0000
  21 H            4.2518    -0.4682     0.7751 H            1    LIG   0.0000
  22 H            1.2241    -1.6913    -0.0151 H            1    LIG   0.0000
  23 H           -0.8725    -0.5303     0.0078 H            1    LIG   0.0000
  24 H           -4.0787     1.4713     1.0104 H            1    LIG   0.0000
  25 H           -4.9054     1.0222     3.2130 H            1    LIG   0.0000
  26 H           -3.4431     1.1951     5.0952 H            1    LIG   0.0000
  27 H           -1.1564     1.8128     4.7857 H            1    LIG   0.0000
  28 H           -0.3219     2.2628     2.5863 H            1    LIG   0.0000
@<TRIPOS>BOND
   1        1        2 3
   2        2        3 1
   3        3        4 ar
   4        4        5 ar
   5        5        6 1
   6        5        7 ar
   7        7        8 ar
   8        8        9 ar
   9        9        3 ar
  10        9       10 1
  11       10       11 1
  12       11       12 ar
  13       12       13 ar
  14       13       14 ar
  15       14       15 ar
  16       15       16 ar
  17       16       11 ar
  18        1       17 1
  19        4       18 1
  20        6       19 1
  21        6       20 1
  22        6       21 1
  23        7       22 1
  24        8       23 1
  25       12       24 1
  26       13       25 1
  27       14       26 1
  28       15       27 1
  29       16       28 1

@<TRIPOS>MOLECULE

  28   29
SMALL
USER_CHARGES
@<TRIPOS>ATOM
   1 C1           1.1333     4.6961     0.0147 C.1          1    LIG   0.0000
   2 N2           1.1502     3.5562     0.0094 N.1          1    LIG   1.0000
   3 C3           1.1720     2.0860     0.0026 C.ar         1    LIG   0.0000
   4 C4           2.3916     1.4182    -0.0132 C.ar         1    LIG   0.0000
   5 C5           2.3956     0.0272    -0.0199 C.ar         1    LIG   0.0000
   6 C6           3.7226    -0.7135    -0.0371 C.3          1    LIG   0.0000
   7 C7           1.2048    -0.6914    -0.0112 C.ar         1    LIG   0.0000
   8 C8          -0.0129    -0.0193     0.0030 C.ar         1    LIG   0.0000
   9 C9          -0.0214     1.3717     0.0103 C.ar         1    LIG   0.0000
  10 S10         -1.5356     2.2284     0.0292 S.3          1    LIG   0.0000
  11 C11         -1.2150     3.5418     1.1246 C.ar         1    LIG   0.0000
  12 C12         -1.8795     4.7526     0.9569 C.ar         1    LIG   0.0000
  13 C13         -1.6214     5.8016     1.8332 C.ar         1    LIG   0.0000
  14 C14         -0.7049     5.6355     2.8666 C.ar         1    LIG   0.0000
  15 C15         -0.0448     4.4213     3.0276 C.ar         1    LIG   0.0000
  16 C16         -0.2975     3.3674     2.1556 C.ar         1    LIG   0.0000
  17 H            1.1184     5.6960     0.0193 H            1    LIG   0.0000
  18 H            3.2511     1.9293    -0.0198 H            1    LIG   0.0000
  19 H            3.5541    -1.6992    -0.0401 H            1    LIG   0.0000
  20 H            4.2349    -0.4604    -0.8578 H            1    LIG   0.0000
  21 H            4.2518    -0.4682     0.7751 H            1    LIG   0.0000
  22 H            1.2241    -1.6913    -0.0151 H            1    LIG   0.0000
  23 H           -0.8725    -0.5303     0.0078 H            1    LIG   0.0000
  24 H           -2.5372     4.8678     0.2125 H            1    LIG   0.0000
  25 H           -2.0947     6.6753     1.7203 H            1    LIG   0.0000
  26 H           -0.5201     6.3908     3.4954 H            1    LIG   0.0000
  27 H            0.6129     4.3061     3.7720 H            1    LIG   0.0000
  28 H            0.1754     2.4936     2.2687 H            1    LIG   0.0000
@<TRIPOS>BOND
   1        1        2 3
   2        2        3 1
   3        3        4 ar
   4        4        5 ar
   5        5        6 1
   6        5        7 ar
   7        7        8 ar
   8        8        9 ar
   9        9        3 ar
  10        9       10 1
  11       10       11 1
  12       11       12 ar
  13       12       13 ar
  14       13       14 ar
  15       14       15 ar
  16       15       16 ar
  17       16       11 ar
  18        1       17 1
  19        4       18 1
  20        6       19 1
  21        6       20 1
  22        6       21 1
  23        7       22 1
  24        8       23 1
  25       12       24 1
  26       13       25 1
  27       14       26 1
  28       15       27 1
  29       16       28 1

