@<TRIPOS>MOLECULE
*****
 28 29 0 0 0
SMALL
USER_CHARGES

@<TRIPOS>ATOM
      1 C1          1.1333    4.6961    0.0147 C.1     1  LIG1        0.0000
      2 N2          1.1502    3.5562    0.0094 N.1     1  LIG1        1.0000
      3 C3          1.1720    2.0860    0.0026 C.ar    1  LIG1        0.0000
      4 C4          2.3916    1.4182   -0.0132 C.ar    1  LIG1        0.0000
      5 C5          2.3956    0.0272   -0.0199 C.ar    1  LIG1        0.0000
      6 C6          3.7226   -0.7135   -0.0371 C.3     1  LIG1        0.0000
      7 C7          1.2048   -0.6914   -0.0112 C.ar    1  LIG1        0.0000
      8 C8         -0.0129   -0.0193    0.0030 C.ar    1  LIG1        0.0000
      9 C9         -0.0214    1.3717    0.0103 C.ar    1  LIG1        0.0000
     10 S10        -1.5356    2.2284    0.0292 S.3     1  LIG1        0.0000
     11 C11        -1.7049    2.6632    1.7055 C.ar    1  LIG1        0.0000
     12 C12        -2.8247    3.3778    2.1190 C.ar    1  LIG1        0.0000
     13 C13        -2.9580    3.7250    3.4594 C.ar    1  LIG1        0.0000
     14 C14        -1.9759    3.3584    4.3741 C.ar    1  LIG1        0.0000
     15 C15        -0.8591    2.6437    3.9524 C.ar    1  LIG1        0.0000
     16 C16        -0.7186    2.2925    2.6138 C.ar    1  LIG1        0.0000
     17 H           1.1184    5.6960    0.0193 H       1  LIG1        0.0000
     18 H           3.2511    1.9293   -0.0198 H       1  LIG1        0.0000
     19 H           3.5541   -1.6992   -0.0401 H       1  LIG1        0.0000
     20 H           4.2349   -0.4604   -0.8578 H       1  LIG1        0.0000
     21 H           4.2518   -0.4682    0.7751 H       1  LIG1        0.0000
     22 H           1.2241   -1.6913   -0.0151 H       1  LIG1        0.0000
     23 H          -0.8725   -0.5303    0.0078 H       1  LIG1        0.0000
     24 H          -3.5281    3.6396    1.4581 H       1  LIG1        0.0000
     25 H          -3.7598    4.2383    3.7656 H       1  LIG1        0.0000
     26 H          -2.0729    3.6093    5.3372 H       1  LIG1        0.0000
     27 H          -0.1558    2.3819    4.6132 H       1  LIG1        0.0000
     28 H           0.0829    1.7789    2.3077 H       1  LIG1        0.0000
@<TRIPOS>BOND
     1     1     2    3
     2     2     3    1
     3     3     4   ar
     4     4     5   ar
     5     5     6    1
     6     5     7   ar
     7     7     8   ar
     8     8     9   ar
     9     9     3   ar
    10     9    10    1
    11    10    11    1
    12    11    12   ar
    13    12    13   ar
    14    13    14   ar
    15    14    15   ar
    16    15    16   ar
    17    16    11   ar
    18     1    17    1
    19     4    18    1
    20     6    19    1
    21     6    20    1
    22     6    21    1
    23     7    22    1
    24     8    23    1
    25    12    24    1
    26    13    25    1
    27    14    26    1
    28    15    27    1
    29    16    28    1
