@<TRIPOS>MOLECULE
*****
 28 29 0 0 0
SMALL
USER_CHARGES

@<TRIPOS>ATOM
      1 C1          1.1333    4.6961    0.0147 C.1     1  LIG1        0.0000
      2 N2          1.1502    3.5562    0.0094 N.1     1  LIG1        1.0000
      3 C3          1.1720    2.0860    0.0026 C.ar    1  LIG1        0.0000
      4 C4          2.3916    1.4182   -0.0132 C.ar    1  LIG1        0.0000
      5 C5          2.3956    0.0272   -0.0199 C.ar    1  LIG1        0.0000
      6 C6          3.7226   -0.7135   -0.0371 C.3     1  LIG1        0.0000
      7 C7          1.2048   -0.6914   -0.0112 C.ar    1  LIG1        0.0000
      8 C8         -0.0129   -0.0193    0.0030 C.ar    1  LIG1        0.0000
      9 C9         -0.0214    1.3717    0.0103 C.ar    1  LIG1        0.0000
     10 S10        -1.5356    2.2284    0.0292 S.3     1  LIG1        0.0000
     11 C11        -1.3161    3.3585    1.3339 C.ar    1  LIG1        0.0000
     12 C12        -1.0618    2.8841    2.6169 C.ar    1  LIG1        0.0000
     13 C13        -0.8872    3.7890    3.6587 C.ar    1  LIG1        0.0000
     14 C14        -0.9679    5.1561    3.4138 C.ar    1  LIG1        0.0000
     15 C15        -1.2223    5.6224    2.1278 C.ar    1  LIG1        0.0000
     16 C16        -1.3979    4.7239    1.0806 C.ar    1  LIG1        0.0000
     17 H           1.1184    5.6960    0.0193 H       1  LIG1        0.0000
     18 H           3.2511    1.9293   -0.0198 H       1  LIG1        0.0000
     19 H           3.5541   -1.6992   -0.0401 H       1  LIG1        0.0000
     20 H           4.2349   -0.4604   -0.8578 H       1  LIG1        0.0000
     21 H           4.2518   -0.4682    0.7751 H       1  LIG1        0.0000
     22 H           1.2241   -1.6913   -0.0151 H       1  LIG1        0.0000
     23 H          -0.8725   -0.5303    0.0078 H       1  LIG1        0.0000
     24 H          -1.0050    1.9006    2.7886 H       1  LIG1        0.0000
     25 H          -0.7037    3.4569    4.5839 H       1  LIG1        0.0000
     26 H          -0.8426    5.8054    4.1639 H       1  LIG1        0.0000
     27 H          -1.2791    6.6059    1.9560 H       1  LIG1        0.0000
     28 H          -1.5810    5.0560    0.1552 H       1  LIG1        0.0000
@<TRIPOS>BOND
     1     1     2    3
     2     2     3    1
     3     3     4   ar
     4     4     5   ar
     5     5     6    1
     6     5     7   ar
     7     7     8   ar
     8     8     9   ar
     9     9     3   ar
    10     9    10    1
    11    10    11    1
    12    11    12   ar
    13    12    13   ar
    14    13    14   ar
    15    14    15   ar
    16    15    16   ar
    17    16    11   ar
    18     1    17    1
    19     4    18    1
    20     6    19    1
    21     6    20    1
    22     6    21    1
    23     7    22    1
    24     8    23    1
    25    12    24    1
    26    13    25    1
    27    14    26    1
    28    15    27    1
    29    16    28    1
