@<TRIPOS>MOLECULE

  31   33
SMALL
USER_CHARGES
@<TRIPOS>ATOM
   1 C1           4.8235     0.0840    -0.8254 C.3          1    LIG   0.0000
   2 C2           3.7650    -0.6559    -0.0240 C.3          1    LIG   0.0000
   3 C3           4.2479    -0.7107     1.4172 C.3          1    LIG   0.0000
   4 C4           3.6206    -2.0986    -0.4886 C.3          1    LIG   0.0000
   5 C5           2.5028    -2.8196     0.2532 C.3          1    LIG   0.0000
   6 C6           1.1960    -2.1796    -0.1814 C.3          1    LIG   0.0000
   7 C7           1.2075    -0.6620    -0.0916 C.ar         1    LIG   0.0000
   8 C8          -0.0165    -0.0030    -0.0765 C.ar         1    LIG   0.0000
   9 C9          -0.0767     1.3859    -0.0356 C.ar         1    LIG   0.0000
  10 O10         -1.0775     2.2422    -0.0371 O.2          1    LIG   0.0000
  11 C11         -0.6748     3.4894    -0.0112 C.2          1    LIG   0.0000
  12 C12          0.6863     3.4434     0.0178 C.2          1    LIG   0.0000
  13 C13          1.1003     2.0915     0.0070 C.ar         1    LIG   0.0000
  14 C14          2.3217     1.4314     0.0087 C.ar         1    LIG   0.0000
  15 C15          2.4104     0.0462    -0.0310 C.ar         1    LIG   0.0000
  16 H            5.6857    -0.4208    -0.7847 H            1    LIG   0.0000
  17 H            4.5272     0.1615    -1.7774 H            1    LIG   0.0000
  18 H            4.9539     0.9981    -0.4414 H            1    LIG   0.0000
  19 H            5.1369    -1.1672     1.4537 H            1    LIG   0.0000
  20 H            4.3356     0.2189     1.7750 H            1    LIG   0.0000
  21 H            3.5888    -1.2200     1.9705 H            1    LIG   0.0000
  22 H            4.4816    -2.5798    -0.3243 H            1    LIG   0.0000
  23 H            3.4167    -2.1050    -1.4676 H            1    LIG   0.0000
  24 H            2.5047    -3.7912     0.0165 H            1    LIG   0.0000
  25 H            2.6239    -2.7168     1.2405 H            1    LIG   0.0000
  26 H            1.0158    -2.4396    -1.1300 H            1    LIG   0.0000
  27 H            0.4632    -2.5262     0.4042 H            1    LIG   0.0000
  28 H           -0.8637    -0.5339    -0.0952 H            1    LIG   0.0000
  29 H           -1.2495     4.3077    -0.0126 H            1    LIG   0.0000
  30 H            1.2942     4.2370     0.0428 H            1    LIG   0.0000
  31 H            3.1635     1.9702     0.0393 H            1    LIG   0.0000
@<TRIPOS>BOND
   1        1        2 1
   2        2        3 1
   3        2        4 1
   4        4        5 1
   5        5        6 1
   6        6        7 1
   7        7        8 ar
   8        8        9 ar
   9        9       10 1
  10       10       11 1
  11       11       12 2
  12       12       13 1
  13       13        9 ar
  14       13       14 ar
  15       14       15 ar
  16       15        7 ar
  17       15        2 1
  18        1       16 1
  19        1       17 1
  20        1       18 1
  21        3       19 1
  22        3       20 1
  23        3       21 1
  24        4       22 1
  25        4       23 1
  26        5       24 1
  27        5       25 1
  28        6       26 1
  29        6       27 1
  30        8       28 1
  31       11       29 1
  32       12       30 1
  33       14       31 1

@<TRIPOS>MOLECULE

  31   33
SMALL
USER_CHARGES
@<TRIPOS>ATOM
   1 C1           4.8395     0.0359     0.7233 C.3          1    LIG   0.0000
   2 C2           3.7498    -0.6854    -0.0553 C.3          1    LIG   0.0000
   3 C3           4.1989    -0.7254    -1.5111 C.3          1    LIG   0.0000
   4 C4           3.6171    -2.1332     0.3971 C.3          1    LIG   0.0000
   5 C5           2.4656    -2.8569    -0.2844 C.3          1    LIG   0.0000
   6 C6           1.1691    -2.1912     0.1488 C.3          1    LIG   0.0000
   7 C7           1.2004    -0.6724     0.0523 C.ar         1    LIG   0.0000
   8 C8          -0.0133     0.0084     0.0462 C.ar         1    LIG   0.0000
   9 C9          -0.1018     1.3966    -0.0005 C.ar         1    LIG   0.0000
  10 O10         -1.0971     2.2662    -0.0254 O.2          1    LIG   0.0000
  11 C11         -0.6745     3.5068    -0.0237 C.2          1    LIG   0.0000
  12 C12          0.6869     3.4562    -0.0114 C.2          1    LIG   0.0000
  13 C13          1.0760     2.0940    -0.0072 C.ar         1    LIG   0.0000
  14 C14          2.2982     1.4239    -0.0306 C.ar         1    LIG   0.0000
  15 C15          2.4044     0.0340    -0.0104 C.ar         1    LIG   0.0000
  16 H            5.6935    -0.4803     0.6576 H            1    LIG   0.0000
  17 H            4.9725     0.9504     0.3412 H            1    LIG   0.0000
  18 H            4.5689     0.1118     1.6830 H            1    LIG   0.0000
  19 H            5.0809    -1.1922    -1.5752 H            1    LIG   0.0000
  20 H            3.5205    -1.2184    -2.0558 H            1    LIG   0.0000
  21 H            4.2900     0.2083    -1.8576 H            1    LIG   0.0000
  22 H            3.4639    -2.1470     1.3852 H            1    LIG   0.0000
  23 H            4.4679    -2.6141     0.1850 H            1    LIG   0.0000
  24 H            2.5647    -2.7926    -1.2774 H            1    LIG   0.0000
  25 H            2.4606    -3.8190    -0.0116 H            1    LIG   0.0000
  26 H            0.4302    -2.5296    -0.4339 H            1    LIG   0.0000
  27 H            0.9865    -2.4436     1.0990 H            1    LIG   0.0000
  28 H           -0.8596    -0.5235     0.0769 H            1    LIG   0.0000
  29 H           -1.2414     4.3307    -0.0302 H            1    LIG   0.0000
  30 H            1.3039     4.2432    -0.0062 H            1    LIG   0.0000
  31 H            3.1382     1.9656    -0.0634 H            1    LIG   0.0000
@<TRIPOS>BOND
   1        1        2 1
   2        2        3 1
   3        2        4 1
   4        4        5 1
   5        5        6 1
   6        6        7 1
   7        7        8 ar
   8        8        9 ar
   9        9       10 1
  10       10       11 1
  11       11       12 2
  12       12       13 1
  13       13        9 ar
  14       13       14 ar
  15       14       15 ar
  16       15        7 ar
  17       15        2 1
  18        1       16 1
  19        1       17 1
  20        1       18 1
  21        3       19 1
  22        3       20 1
  23        3       21 1
  24        4       22 1
  25        4       23 1
  26        5       24 1
  27        5       25 1
  28        6       26 1
  29        6       27 1
  30        8       28 1
  31       11       29 1
  32       12       30 1
  33       14       31 1

@<TRIPOS>MOLECULE

  31   33
SMALL
USER_CHARGES
@<TRIPOS>ATOM
   1 C1           4.8612     0.0768    -0.4136 C.3          1    LIG   0.0000
   2 C2           3.6667    -0.8009    -0.0647 C.3          1    LIG   0.0000
   3 C3           3.9936    -1.5015     1.2369 C.3          1    LIG   0.0000
   4 C4           3.4411    -1.6709    -1.2945 C.3          1    LIG   0.0000
   5 C5           2.1741    -2.5276    -1.3015 C.3          1    LIG   0.0000
   6 C6           1.1276    -2.1988    -0.2417 C.3          1    LIG   0.0000
   7 C7           1.1751    -0.6861    -0.0949 C.ar         1    LIG   0.0000
   8 C8          -0.0309     0.0016    -0.0672 C.ar         1    LIG   0.0000
   9 C9          -0.0969     1.3928    -0.0178 C.ar         1    LIG   0.0000
  10 O10         -1.0828     2.2744    -0.0055 O.2          1    LIG   0.0000
  11 C11         -0.6375     3.5109     0.0033 C.2          1    LIG   0.0000
  12 C12          0.7245     3.4505     0.0216 C.2          1    LIG   0.0000
  13 C13          1.0893     2.0845     0.0146 C.ar         1    LIG   0.0000
  14 C14          2.2994     1.4065     0.0066 C.ar         1    LIG   0.0000
  15 C15          2.3827     0.0130    -0.0338 C.ar         1    LIG   0.0000
  16 H            5.6915    -0.4803    -0.4275 H            1    LIG   0.0000
  17 H            4.7207     0.4883    -1.3141 H            1    LIG   0.0000
  18 H            4.9557     0.7989     0.2717 H            1    LIG   0.0000
  19 H            4.8474    -2.0122     1.1353 H            1    LIG   0.0000
  20 H            4.0955    -0.8229     1.9643 H            1    LIG   0.0000
  21 H            3.2537    -2.1323     1.4708 H            1    LIG   0.0000
  22 H            4.2246    -2.2865    -1.3789 H            1    LIG   0.0000
  23 H            3.4041    -1.0673    -2.0909 H            1    LIG   0.0000
  24 H            1.7423    -2.4250    -2.1976 H            1    LIG   0.0000
  25 H            2.4499    -3.4800    -1.1715 H            1    LIG   0.0000
  26 H            0.2202    -2.4943    -0.5406 H            1    LIG   0.0000
  27 H            1.3541    -2.6430     0.6251 H            1    LIG   0.0000
  28 H           -0.8835    -0.5207    -0.0833 H            1    LIG   0.0000
  29 H           -1.1942     4.3417    -0.0023 H            1    LIG   0.0000
  30 H            1.3510     4.2299     0.0370 H            1    LIG   0.0000
  31 H            3.1467     1.9371     0.0307 H            1    LIG   0.0000
@<TRIPOS>BOND
   1        1        2 1
   2        2        3 1
   3        2        4 1
   4        4        5 1
   5        5        6 1
   6        6        7 1
   7        7        8 ar
   8        8        9 ar
   9        9       10 1
  10       10       11 1
  11       11       12 2
  12       12       13 1
  13       13        9 ar
  14       13       14 ar
  15       14       15 ar
  16       15        7 ar
  17       15        2 1
  18        1       16 1
  19        1       17 1
  20        1       18 1
  21        3       19 1
  22        3       20 1
  23        3       21 1
  24        4       22 1
  25        4       23 1
  26        5       24 1
  27        5       25 1
  28        6       26 1
  29        6       27 1
  30        8       28 1
  31       11       29 1
  32       12       30 1
  33       14       31 1

@<TRIPOS>MOLECULE

  31   33
SMALL
USER_CHARGES
@<TRIPOS>ATOM
   1 C1           4.8957    -0.0055     0.2392 C.3          1    LIG   0.0000
   2 C2           3.6491    -0.8438    -0.0225 C.3          1    LIG   0.0000
   3 C3           3.8719    -1.5856    -1.3358 C.3          1    LIG   0.0000
   4 C4           3.5049    -1.6812     1.2509 C.3          1    LIG   0.0000
   5 C5           2.2432    -2.5408     1.3009 C.3          1    LIG   0.0000
   6 C6           1.1832    -2.2053     0.2610 C.3          1    LIG   0.0000
   7 C7           1.2069    -0.6952     0.1056 C.ar         1    LIG   0.0000
   8 C8           0.0114    -0.0028     0.0864 C.ar         1    LIG   0.0000
   9 C9          -0.0598     1.3889     0.0278 C.ar         1    LIG   0.0000
  10 O10         -1.0467     2.2554     0.0383 O.2          1    LIG   0.0000
  11 C11         -0.6401     3.5012     0.0400 C.2          1    LIG   0.0000
  12 C12          0.7229     3.4489     0.0193 C.2          1    LIG   0.0000
  13 C13          1.1170     2.0907     0.0027 C.ar         1    LIG   0.0000
  14 C14          2.3251     1.4127    -0.0328 C.ar         1    LIG   0.0000
  15 C15          2.4032     0.0214    -0.0050 C.ar         1    LIG   0.0000
  16 H            5.7032    -0.5951     0.2231 H            1    LIG   0.0000
  17 H            4.9806     0.6955    -0.4689 H            1    LIG   0.0000
  18 H            4.8206     0.4327     1.1349 H            1    LIG   0.0000
  19 H            4.7070    -2.1320    -1.2726 H            1    LIG   0.0000
  20 H            3.0931    -2.1866    -1.5154 H            1    LIG   0.0000
  21 H            3.9616    -0.9246    -2.0809 H            1    LIG   0.0000
  22 H            3.4912    -1.0597     2.0341 H            1    LIG   0.0000
  23 H            4.2984    -2.2860     1.3191 H            1    LIG   0.0000
  24 H            2.5140    -3.4944     1.1689 H            1    LIG   0.0000
  25 H            1.8322    -2.4333     2.2062 H            1    LIG   0.0000
  26 H            1.3995    -2.6470    -0.6097 H            1    LIG   0.0000
  27 H            0.2827    -2.5076     0.5735 H            1    LIG   0.0000
  28 H           -0.8419    -0.5233     0.1157 H            1    LIG   0.0000
  29 H           -1.2117     4.3217     0.0537 H            1    LIG   0.0000
  30 H            1.3386     4.2369     0.0163 H            1    LIG   0.0000
  31 H            3.1725     1.9415    -0.0802 H            1    LIG   0.0000
@<TRIPOS>BOND
   1        1        2 1
   2        2        3 1
   3        2        4 1
   4        4        5 1
   5        5        6 1
   6        6        7 1
   7        7        8 ar
   8        8        9 ar
   9        9       10 1
  10       10       11 1
  11       11       12 2
  12       12       13 1
  13       13        9 ar
  14       13       14 ar
  15       14       15 ar
  16       15        7 ar
  17       15        2 1
  18        1       16 1
  19        1       17 1
  20        1       18 1
  21        3       19 1
  22        3       20 1
  23        3       21 1
  24        4       22 1
  25        4       23 1
  26        5       24 1
  27        5       25 1
  28        6       26 1
  29        6       27 1
  30        8       28 1
  31       11       29 1
  32       12       30 1
  33       14       31 1

