@<TRIPOS>MOLECULE
*****
 31 33 0 0 0
SMALL
USER_CHARGES

@<TRIPOS>ATOM
      1 C1          4.8612    0.0768   -0.4136 C.3     1  LIG1        0.0000
      2 C2          3.6667   -0.8009   -0.0647 C.3     1  LIG1        0.0000
      3 C3          3.9936   -1.5015    1.2369 C.3     1  LIG1        0.0000
      4 C4          3.4411   -1.6709   -1.2945 C.3     1  LIG1        0.0000
      5 C5          2.1741   -2.5276   -1.3015 C.3     1  LIG1        0.0000
      6 C6          1.1276   -2.1988   -0.2417 C.3     1  LIG1        0.0000
      7 C7          1.1751   -0.6861   -0.0949 C.ar    1  LIG1        0.0000
      8 C8         -0.0309    0.0016   -0.0672 C.ar    1  LIG1        0.0000
      9 C9         -0.0969    1.3928   -0.0178 C.ar    1  LIG1        0.0000
     10 O10        -1.0828    2.2744   -0.0055 O.2     1  LIG1        0.0000
     11 C11        -0.6375    3.5109    0.0033 C.2     1  LIG1        0.0000
     12 C12         0.7245    3.4505    0.0216 C.2     1  LIG1        0.0000
     13 C13         1.0893    2.0845    0.0146 C.ar    1  LIG1        0.0000
     14 C14         2.2994    1.4065    0.0066 C.ar    1  LIG1        0.0000
     15 C15         2.3827    0.0130   -0.0338 C.ar    1  LIG1        0.0000
     16 H           5.6915   -0.4803   -0.4275 H       1  LIG1        0.0000
     17 H           4.7207    0.4883   -1.3141 H       1  LIG1        0.0000
     18 H           4.9557    0.7989    0.2717 H       1  LIG1        0.0000
     19 H           4.8474   -2.0122    1.1353 H       1  LIG1        0.0000
     20 H           4.0955   -0.8229    1.9643 H       1  LIG1        0.0000
     21 H           3.2537   -2.1323    1.4708 H       1  LIG1        0.0000
     22 H           4.2246   -2.2865   -1.3789 H       1  LIG1        0.0000
     23 H           3.4041   -1.0673   -2.0909 H       1  LIG1        0.0000
     24 H           1.7423   -2.4250   -2.1976 H       1  LIG1        0.0000
     25 H           2.4499   -3.4800   -1.1715 H       1  LIG1        0.0000
     26 H           0.2202   -2.4943   -0.5406 H       1  LIG1        0.0000
     27 H           1.3541   -2.6430    0.6251 H       1  LIG1        0.0000
     28 H          -0.8835   -0.5207   -0.0833 H       1  LIG1        0.0000
     29 H          -1.1942    4.3417   -0.0023 H       1  LIG1        0.0000
     30 H           1.3510    4.2299    0.0370 H       1  LIG1        0.0000
     31 H           3.1467    1.9371    0.0307 H       1  LIG1        0.0000
@<TRIPOS>BOND
     1     1     2    1
     2     2     3    1
     3     2     4    1
     4     4     5    1
     5     5     6    1
     6     6     7    1
     7     7     8   ar
     8     8     9   ar
     9     9    10    1
    10    10    11    1
    11    11    12    2
    12    12    13    1
    13    13     9   ar
    14    13    14   ar
    15    14    15   ar
    16    15     7   ar
    17    15     2    1
    18     1    16    1
    19     1    17    1
    20     1    18    1
    21     3    19    1
    22     3    20    1
    23     3    21    1
    24     4    22    1
    25     4    23    1
    26     5    24    1
    27     5    25    1
    28     6    26    1
    29     6    27    1
    30     8    28    1
    31    11    29    1
    32    12    30    1
    33    14    31    1
