@<TRIPOS>MOLECULE
*****
 31 33 0 0 0
SMALL
USER_CHARGES

@<TRIPOS>ATOM
      1 C1          4.8395    0.0359    0.7233 C.3     1  LIG1        0.0000
      2 C2          3.7498   -0.6854   -0.0553 C.3     1  LIG1        0.0000
      3 C3          4.1989   -0.7254   -1.5111 C.3     1  LIG1        0.0000
      4 C4          3.6171   -2.1332    0.3971 C.3     1  LIG1        0.0000
      5 C5          2.4656   -2.8569   -0.2844 C.3     1  LIG1        0.0000
      6 C6          1.1691   -2.1912    0.1488 C.3     1  LIG1        0.0000
      7 C7          1.2004   -0.6724    0.0523 C.ar    1  LIG1        0.0000
      8 C8         -0.0133    0.0084    0.0462 C.ar    1  LIG1        0.0000
      9 C9         -0.1018    1.3966   -0.0005 C.ar    1  LIG1        0.0000
     10 O10        -1.0971    2.2662   -0.0254 O.2     1  LIG1        0.0000
     11 C11        -0.6745    3.5068   -0.0237 C.2     1  LIG1        0.0000
     12 C12         0.6869    3.4562   -0.0114 C.2     1  LIG1        0.0000
     13 C13         1.0760    2.0940   -0.0072 C.ar    1  LIG1        0.0000
     14 C14         2.2982    1.4239   -0.0306 C.ar    1  LIG1        0.0000
     15 C15         2.4044    0.0340   -0.0104 C.ar    1  LIG1        0.0000
     16 H           5.6935   -0.4803    0.6576 H       1  LIG1        0.0000
     17 H           4.9725    0.9504    0.3412 H       1  LIG1        0.0000
     18 H           4.5689    0.1118    1.6830 H       1  LIG1        0.0000
     19 H           5.0809   -1.1922   -1.5752 H       1  LIG1        0.0000
     20 H           3.5205   -1.2184   -2.0558 H       1  LIG1        0.0000
     21 H           4.2900    0.2083   -1.8576 H       1  LIG1        0.0000
     22 H           3.4639   -2.1470    1.3852 H       1  LIG1        0.0000
     23 H           4.4679   -2.6141    0.1850 H       1  LIG1        0.0000
     24 H           2.5647   -2.7926   -1.2774 H       1  LIG1        0.0000
     25 H           2.4606   -3.8190   -0.0116 H       1  LIG1        0.0000
     26 H           0.4302   -2.5296   -0.4339 H       1  LIG1        0.0000
     27 H           0.9865   -2.4436    1.0990 H       1  LIG1        0.0000
     28 H          -0.8596   -0.5235    0.0769 H       1  LIG1        0.0000
     29 H          -1.2414    4.3307   -0.0302 H       1  LIG1        0.0000
     30 H           1.3039    4.2432   -0.0062 H       1  LIG1        0.0000
     31 H           3.1382    1.9656   -0.0634 H       1  LIG1        0.0000
@<TRIPOS>BOND
     1     1     2    1
     2     2     3    1
     3     2     4    1
     4     4     5    1
     5     5     6    1
     6     6     7    1
     7     7     8   ar
     8     8     9   ar
     9     9    10    1
    10    10    11    1
    11    11    12    2
    12    12    13    1
    13    13     9   ar
    14    13    14   ar
    15    14    15   ar
    16    15     7   ar
    17    15     2    1
    18     1    16    1
    19     1    17    1
    20     1    18    1
    21     3    19    1
    22     3    20    1
    23     3    21    1
    24     4    22    1
    25     4    23    1
    26     5    24    1
    27     5    25    1
    28     6    26    1
    29     6    27    1
    30     8    28    1
    31    11    29    1
    32    12    30    1
    33    14    31    1
