@<TRIPOS>MOLECULE
*****
 31 33 0 0 0
SMALL
USER_CHARGES

@<TRIPOS>ATOM
      1 C1          4.8235    0.0840   -0.8254 C.3     1  LIG1        0.0000
      2 C2          3.7650   -0.6559   -0.0240 C.3     1  LIG1        0.0000
      3 C3          4.2479   -0.7107    1.4172 C.3     1  LIG1        0.0000
      4 C4          3.6206   -2.0986   -0.4886 C.3     1  LIG1        0.0000
      5 C5          2.5028   -2.8196    0.2532 C.3     1  LIG1        0.0000
      6 C6          1.1960   -2.1796   -0.1814 C.3     1  LIG1        0.0000
      7 C7          1.2075   -0.6620   -0.0916 C.ar    1  LIG1        0.0000
      8 C8         -0.0165   -0.0030   -0.0765 C.ar    1  LIG1        0.0000
      9 C9         -0.0767    1.3859   -0.0356 C.ar    1  LIG1        0.0000
     10 O10        -1.0775    2.2422   -0.0371 O.2     1  LIG1        0.0000
     11 C11        -0.6748    3.4894   -0.0112 C.2     1  LIG1        0.0000
     12 C12         0.6863    3.4434    0.0178 C.2     1  LIG1        0.0000
     13 C13         1.1003    2.0915    0.0070 C.ar    1  LIG1        0.0000
     14 C14         2.3217    1.4314    0.0087 C.ar    1  LIG1        0.0000
     15 C15         2.4104    0.0462   -0.0310 C.ar    1  LIG1        0.0000
     16 H           5.6857   -0.4208   -0.7847 H       1  LIG1        0.0000
     17 H           4.5272    0.1615   -1.7774 H       1  LIG1        0.0000
     18 H           4.9539    0.9981   -0.4414 H       1  LIG1        0.0000
     19 H           5.1369   -1.1672    1.4537 H       1  LIG1        0.0000
     20 H           4.3356    0.2189    1.7750 H       1  LIG1        0.0000
     21 H           3.5888   -1.2200    1.9705 H       1  LIG1        0.0000
     22 H           4.4816   -2.5798   -0.3243 H       1  LIG1        0.0000
     23 H           3.4167   -2.1050   -1.4676 H       1  LIG1        0.0000
     24 H           2.5047   -3.7912    0.0165 H       1  LIG1        0.0000
     25 H           2.6239   -2.7168    1.2405 H       1  LIG1        0.0000
     26 H           1.0158   -2.4396   -1.1300 H       1  LIG1        0.0000
     27 H           0.4632   -2.5262    0.4042 H       1  LIG1        0.0000
     28 H          -0.8637   -0.5339   -0.0952 H       1  LIG1        0.0000
     29 H          -1.2495    4.3077   -0.0126 H       1  LIG1        0.0000
     30 H           1.2942    4.2370    0.0428 H       1  LIG1        0.0000
     31 H           3.1635    1.9702    0.0393 H       1  LIG1        0.0000
@<TRIPOS>BOND
     1     1     2    1
     2     2     3    1
     3     2     4    1
     4     4     5    1
     5     5     6    1
     6     6     7    1
     7     7     8   ar
     8     8     9   ar
     9     9    10    1
    10    10    11    1
    11    11    12    2
    12    12    13    1
    13    13     9   ar
    14    13    14   ar
    15    14    15   ar
    16    15     7   ar
    17    15     2    1
    18     1    16    1
    19     1    17    1
    20     1    18    1
    21     3    19    1
    22     3    20    1
    23     3    21    1
    24     4    22    1
    25     4    23    1
    26     5    24    1
    27     5    25    1
    28     6    26    1
    29     6    27    1
    30     8    28    1
    31    11    29    1
    32    12    30    1
    33    14    31    1
