@<TRIPOS>MOLECULE
*****
 31 33 0 0 0
SMALL
USER_CHARGES

@<TRIPOS>ATOM
      1 C1          4.8957   -0.0055    0.2392 C.3     1  LIG1        0.0000
      2 C2          3.6491   -0.8438   -0.0225 C.3     1  LIG1        0.0000
      3 C3          3.8719   -1.5856   -1.3358 C.3     1  LIG1        0.0000
      4 C4          3.5049   -1.6812    1.2509 C.3     1  LIG1        0.0000
      5 C5          2.2432   -2.5408    1.3009 C.3     1  LIG1        0.0000
      6 C6          1.1832   -2.2053    0.2610 C.3     1  LIG1        0.0000
      7 C7          1.2069   -0.6952    0.1056 C.ar    1  LIG1        0.0000
      8 C8          0.0114   -0.0028    0.0864 C.ar    1  LIG1        0.0000
      9 C9         -0.0598    1.3889    0.0278 C.ar    1  LIG1        0.0000
     10 O10        -1.0467    2.2554    0.0383 O.2     1  LIG1        0.0000
     11 C11        -0.6401    3.5012    0.0400 C.2     1  LIG1        0.0000
     12 C12         0.7229    3.4489    0.0193 C.2     1  LIG1        0.0000
     13 C13         1.1170    2.0907    0.0027 C.ar    1  LIG1        0.0000
     14 C14         2.3251    1.4127   -0.0328 C.ar    1  LIG1        0.0000
     15 C15         2.4032    0.0214   -0.0050 C.ar    1  LIG1        0.0000
     16 H           5.7032   -0.5951    0.2231 H       1  LIG1        0.0000
     17 H           4.9806    0.6955   -0.4689 H       1  LIG1        0.0000
     18 H           4.8206    0.4327    1.1349 H       1  LIG1        0.0000
     19 H           4.7070   -2.1320   -1.2726 H       1  LIG1        0.0000
     20 H           3.0931   -2.1866   -1.5154 H       1  LIG1        0.0000
     21 H           3.9616   -0.9246   -2.0809 H       1  LIG1        0.0000
     22 H           3.4912   -1.0597    2.0341 H       1  LIG1        0.0000
     23 H           4.2984   -2.2860    1.3191 H       1  LIG1        0.0000
     24 H           2.5140   -3.4944    1.1689 H       1  LIG1        0.0000
     25 H           1.8322   -2.4333    2.2062 H       1  LIG1        0.0000
     26 H           1.3995   -2.6470   -0.6097 H       1  LIG1        0.0000
     27 H           0.2827   -2.5076    0.5735 H       1  LIG1        0.0000
     28 H          -0.8419   -0.5233    0.1157 H       1  LIG1        0.0000
     29 H          -1.2117    4.3217    0.0537 H       1  LIG1        0.0000
     30 H           1.3386    4.2369    0.0163 H       1  LIG1        0.0000
     31 H           3.1725    1.9415   -0.0802 H       1  LIG1        0.0000
@<TRIPOS>BOND
     1     1     2    1
     2     2     3    1
     3     2     4    1
     4     4     5    1
     5     5     6    1
     6     6     7    1
     7     7     8   ar
     8     8     9   ar
     9     9    10    1
    10    10    11    1
    11    11    12    2
    12    12    13    1
    13    13     9   ar
    14    13    14   ar
    15    14    15   ar
    16    15     7   ar
    17    15     2    1
    18     1    16    1
    19     1    17    1
    20     1    18    1
    21     3    19    1
    22     3    20    1
    23     3    21    1
    24     4    22    1
    25     4    23    1
    26     5    24    1
    27     5    25    1
    28     6    26    1
    29     6    27    1
    30     8    28    1
    31    11    29    1
    32    12    30    1
    33    14    31    1
