@<TRIPOS>MOLECULE

  63   67
SMALL
USER_CHARGES
@<TRIPOS>ATOM
   1 C1          -5.4282    -6.6816     2.2923 C.3          1    LIG   0.0000
   2 C2          -4.6932    -5.3518     2.3377 C.ar         1    LIG   0.0000
   3 C3          -3.7412    -5.1302     3.3280 C.ar         1    LIG   0.0000
   4 C4          -3.0720    -3.9116     3.3641 C.ar         1    LIG   0.0000
   5 C5          -3.3583    -2.9323     2.4180 C.ar         1    LIG   0.0000
   6 N6          -2.6822    -1.7069     2.4594 N.am         1    LIG   0.0000
   7 C7          -1.4910    -1.5771     1.7399 C.2          1    LIG   0.0000
   8 O8          -1.0343    -2.5083     1.0950 O.2          1    LIG   0.0000
   9 C9          -0.7782    -0.3172     1.7444 C.2          1    LIG   0.0000
  10 C10          0.3150    -0.1864     1.0057 C.2          1    LIG   0.0000
  11 N11          1.0000     1.0000     1.0000 N.pl3        1    LIG   0.0000
  12 C12          2.4005     1.0000     1.0000 C.ar         1    LIG   0.0000
  13 C13          3.0684    -0.2205     1.0073 C.ar         1    LIG   0.0000
  14 C14          4.4592    -0.2523     1.0066 C.ar         1    LIG   0.0000
  15 C15          5.1824     0.9360     1.0003 C.ar         1    LIG   0.0000
  16 C16          4.5145     2.1570     0.9946 C.ar         1    LIG   0.0000
  17 C17          3.1238     2.1892     0.9942 C.ar         1    LIG   0.0000
  18 C18          2.4280     3.4615     0.9880 C.2          1    LIG   0.0000
  19 O19          1.2283     3.4893     0.9878 O.2          1    LIG   0.0000
  20 N20          3.1403     4.6318     0.9823 N.am         1    LIG   0.0000
  21 C21          2.4350     5.9215     0.9760 C.3          1    LIG   0.0000
  22 C22          1.9731     6.2538     2.3869 C.3          1    LIG   0.0000
  23 C23          3.1256     6.1832     3.3690 C.3          1    LIG   0.0000
  24 C24          2.3805     6.1183     4.6900 C.3          1    LIG   0.0000
  25 C25          1.0445     5.5111     4.3203 C.3          1    LIG   0.0000
  26 O26          1.0939     5.2856     2.9200 O.3          1    LIG   0.0000
  27 C27         -1.3126     0.7760     2.5450 C.ar         1    LIG   0.0000
  28 C28         -0.6178     1.9811     2.5808 C.ar         1    LIG   0.0000
  29 C29         -1.1139     3.0375     3.3319 C.ar         1    LIG   0.0000
  30 C30         -2.2991     2.8958     4.0448 C.ar         1    LIG   0.0000
  31 C31         -2.9890     1.6900     4.0090 C.ar         1    LIG   0.0000
  32 C32         -2.4985     0.6222     3.2651 C.ar         1    LIG   0.0000
  33 C33         -3.2065    -0.6433     3.2081 C.2          1    LIG   0.0000
  34 O34         -4.2605    -0.8239     3.8007 O.2          1    LIG   0.0000
  35 C35         -4.3094    -3.1544     1.4276 C.ar         1    LIG   0.0000
  36 C36         -4.9782    -4.3734     1.3911 C.ar         1    LIG   0.0000
  37 H            1.5499     7.1595     2.4108 H            1    LIG   0.0000
  38 H           -6.0728    -6.6803     1.5278 H            1    LIG   0.0000
  39 H           -4.7685    -7.4231     2.1707 H            1    LIG   0.0000
  40 H           -5.9269    -6.8162     3.1486 H            1    LIG   0.0000
  41 H           -3.5408    -5.8382     4.0052 H            1    LIG   0.0000
  42 H           -2.3850    -3.7392     4.0700 H            1    LIG   0.0000
  43 H            0.6395    -0.9538     0.4528 H            1    LIG   0.0000
  44 H            0.5000     1.8660     0.9958 H            1    LIG   0.0000
  45 H            2.5487    -1.0749     1.0130 H            1    LIG   0.0000
  46 H            4.9392    -1.1296     1.0105 H            1    LIG   0.0000
  47 H            6.1821     0.9129     0.9999 H            1    LIG   0.0000
  48 H            5.0344     3.0112     0.9907 H            1    LIG   0.0000
  49 H            4.1400     4.6086     0.9825 H            1    LIG   0.0000
  50 H            1.6414     5.8645     0.3702 H            1    LIG   0.0000
  51 H            3.0524     6.6374     0.6501 H            1    LIG   0.0000
  52 H            3.7048     6.9965     3.3141 H            1    LIG   0.0000
  53 H            3.6834     5.3663     3.2219 H            1    LIG   0.0000
  54 H            2.8661     5.5393     5.3450 H            1    LIG   0.0000
  55 H            2.2616     7.0325     5.0774 H            1    LIG   0.0000
  56 H            0.9080     4.6483     4.8070 H            1    LIG   0.0000
  57 H            0.3017     6.1418     4.5451 H            1    LIG   0.0000
  58 H            0.2344     2.0855     2.0680 H            1    LIG   0.0000
  59 H           -0.6166     3.9046     3.3605 H            1    LIG   0.0000
  60 H           -2.6545     3.6604     4.5825 H            1    LIG   0.0000
  61 H           -3.8423     1.5896     4.5206 H            1    LIG   0.0000
  62 H           -4.5097    -2.4466     0.7502 H            1    LIG   0.0000
  63 H           -5.6641    -4.5464     0.6842 H            1    LIG   0.0000
@<TRIPOS>BOND
   1        1        2 1
   2        2        3 ar
   3        3        4 ar
   4        4        5 ar
   5        5        6 1
   6        6        7 am
   7        7        8 2
   8        7        9 1
   9        9       10 2
  10       10       11 1
  11       11       12 1
  12       12       13 ar
  13       13       14 ar
  14       14       15 ar
  15       15       16 ar
  16       16       17 ar
  17       17       12 ar
  18       17       18 1
  19       18       19 2
  20       18       20 am
  21       20       21 1
  22       21       22 1
  23       22       23 1
  24       23       24 1
  25       24       25 1
  26       25       26 1
  27       26       22 1
  28        9       27 1
  29       27       28 ar
  30       28       29 ar
  31       29       30 ar
  32       30       31 ar
  33       31       32 ar
  34       32       27 ar
  35       32       33 1
  36       33        6 am
  37       33       34 2
  38        5       35 ar
  39       35       36 ar
  40       36        2 ar
  41       22       37 1
  42        1       38 1
  43        1       39 1
  44        1       40 1
  45        3       41 1
  46        4       42 1
  47       10       43 1
  48       11       44 1
  49       13       45 1
  50       14       46 1
  51       15       47 1
  52       16       48 1
  53       20       49 1
  54       21       50 1
  55       21       51 1
  56       23       52 1
  57       23       53 1
  58       24       54 1
  59       24       55 1
  60       25       56 1
  61       25       57 1
  62       28       58 1
  63       29       59 1
  64       30       60 1
  65       31       61 1
  66       35       62 1
  67       36       63 1

@<TRIPOS>MOLECULE

  63   67
SMALL
USER_CHARGES
@<TRIPOS>ATOM
   1 C1          -5.4282    -6.6816     2.2923 C.3          1    LIG   0.0000
   2 C2          -4.6932    -5.3518     2.3377 C.ar         1    LIG   0.0000
   3 C3          -3.7412    -5.1302     3.3280 C.ar         1    LIG   0.0000
   4 C4          -3.0720    -3.9116     3.3641 C.ar         1    LIG   0.0000
   5 C5          -3.3583    -2.9323     2.4180 C.ar         1    LIG   0.0000
   6 N6          -2.6822    -1.7069     2.4594 N.am         1    LIG   0.0000
   7 C7          -1.4910    -1.5771     1.7399 C.2          1    LIG   0.0000
   8 O8          -1.0343    -2.5083     1.0950 O.2          1    LIG   0.0000
   9 C9          -0.7782    -0.3172     1.7444 C.2          1    LIG   0.0000
  10 C10          0.3150    -0.1864     1.0057 C.2          1    LIG   0.0000
  11 N11          1.0000     1.0000     1.0000 N.pl3        1    LIG   0.0000
  12 C12          2.4005     1.0000     1.0000 C.ar         1    LIG   0.0000
  13 C13          3.0684    -0.2205     1.0073 C.ar         1    LIG   0.0000
  14 C14          4.4592    -0.2523     1.0066 C.ar         1    LIG   0.0000
  15 C15          5.1824     0.9360     1.0003 C.ar         1    LIG   0.0000
  16 C16          4.5145     2.1570     0.9946 C.ar         1    LIG   0.0000
  17 C17          3.1238     2.1892     0.9942 C.ar         1    LIG   0.0000
  18 C18          2.4280     3.4615     0.9880 C.2          1    LIG   0.0000
  19 O19          1.2283     3.4893     0.9878 O.2          1    LIG   0.0000
  20 N20          3.1403     4.6318     0.9823 N.am         1    LIG   0.0000
  21 C21          2.4350     5.9215     0.9760 C.3          1    LIG   0.0000
  22 C22          1.9733     6.2400    -0.4381 C.3          1    LIG   0.0000
  23 C23          1.1719     5.0932    -1.0215 C.3          1    LIG   0.0000
  24 C24          1.2013     5.4382    -2.4995 C.3          1    LIG   0.0000
  25 C25          2.4663     6.2545    -2.6536 C.3          1    LIG   0.0000
  26 O26          3.0411     6.3294    -1.3581 O.3          1    LIG   0.0000
  27 C27         -1.3126     0.7760     2.5450 C.ar         1    LIG   0.0000
  28 C28         -0.6178     1.9811     2.5808 C.ar         1    LIG   0.0000
  29 C29         -1.1139     3.0375     3.3319 C.ar         1    LIG   0.0000
  30 C30         -2.2991     2.8958     4.0448 C.ar         1    LIG   0.0000
  31 C31         -2.9890     1.6900     4.0090 C.ar         1    LIG   0.0000
  32 C32         -2.4985     0.6222     3.2651 C.ar         1    LIG   0.0000
  33 C33         -3.2065    -0.6433     3.2081 C.2          1    LIG   0.0000
  34 O34         -4.2605    -0.8239     3.8007 O.2          1    LIG   0.0000
  35 C35         -4.3094    -3.1544     1.4276 C.ar         1    LIG   0.0000
  36 C36         -4.9782    -4.3734     1.3911 C.ar         1    LIG   0.0000
  37 H            1.4340     7.0821    -0.4472 H            1    LIG   0.0000
  38 H           -6.0728    -6.6803     1.5278 H            1    LIG   0.0000
  39 H           -4.7685    -7.4231     2.1707 H            1    LIG   0.0000
  40 H           -5.9269    -6.8162     3.1486 H            1    LIG   0.0000
  41 H           -3.5408    -5.8382     4.0052 H            1    LIG   0.0000
  42 H           -2.3850    -3.7392     4.0700 H            1    LIG   0.0000
  43 H            0.6395    -0.9538     0.4528 H            1    LIG   0.0000
  44 H            0.5000     1.8660     0.9958 H            1    LIG   0.0000
  45 H            2.5487    -1.0749     1.0130 H            1    LIG   0.0000
  46 H            4.9392    -1.1296     1.0105 H            1    LIG   0.0000
  47 H            6.1821     0.9129     0.9999 H            1    LIG   0.0000
  48 H            5.0344     3.0112     0.9907 H            1    LIG   0.0000
  49 H            4.1400     4.6086     0.9825 H            1    LIG   0.0000
  50 H            3.0524     6.6406     1.2950 H            1    LIG   0.0000
  51 H            1.6414     5.8704     1.5823 H            1    LIG   0.0000
  52 H            0.2372     5.0808    -0.6662 H            1    LIG   0.0000
  53 H            1.6086     4.2118    -0.8418 H            1    LIG   0.0000
  54 H            1.2415     4.6097    -3.0581 H            1    LIG   0.0000
  55 H            0.3974     5.9747    -2.7564 H            1    LIG   0.0000
  56 H            3.0953     5.8048    -3.2878 H            1    LIG   0.0000
  57 H            2.2502     7.1704    -2.9918 H            1    LIG   0.0000
  58 H            0.2344     2.0855     2.0680 H            1    LIG   0.0000
  59 H           -0.6166     3.9046     3.3605 H            1    LIG   0.0000
  60 H           -2.6545     3.6604     4.5825 H            1    LIG   0.0000
  61 H           -3.8423     1.5896     4.5206 H            1    LIG   0.0000
  62 H           -4.5097    -2.4466     0.7502 H            1    LIG   0.0000
  63 H           -5.6641    -4.5464     0.6842 H            1    LIG   0.0000
@<TRIPOS>BOND
   1        1        2 1
   2        2        3 ar
   3        3        4 ar
   4        4        5 ar
   5        5        6 1
   6        6        7 am
   7        7        8 2
   8        7        9 1
   9        9       10 2
  10       10       11 1
  11       11       12 1
  12       12       13 ar
  13       13       14 ar
  14       14       15 ar
  15       15       16 ar
  16       16       17 ar
  17       17       12 ar
  18       17       18 1
  19       18       19 2
  20       18       20 am
  21       20       21 1
  22       21       22 1
  23       22       23 1
  24       23       24 1
  25       24       25 1
  26       25       26 1
  27       26       22 1
  28        9       27 1
  29       27       28 ar
  30       28       29 ar
  31       29       30 ar
  32       30       31 ar
  33       31       32 ar
  34       32       27 ar
  35       32       33 1
  36       33        6 am
  37       33       34 2
  38        5       35 ar
  39       35       36 ar
  40       36        2 ar
  41       22       37 1
  42        1       38 1
  43        1       39 1
  44        1       40 1
  45        3       41 1
  46        4       42 1
  47       10       43 1
  48       11       44 1
  49       13       45 1
  50       14       46 1
  51       15       47 1
  52       16       48 1
  53       20       49 1
  54       21       50 1
  55       21       51 1
  56       23       52 1
  57       23       53 1
  58       24       54 1
  59       24       55 1
  60       25       56 1
  61       25       57 1
  62       28       58 1
  63       29       59 1
  64       30       60 1
  65       31       61 1
  66       35       62 1
  67       36       63 1

@<TRIPOS>MOLECULE

  63   67
SMALL
USER_CHARGES
@<TRIPOS>ATOM
   1 C1          -5.4263    -6.6827     2.2923 C.3          1    LIG   0.0000
   2 C2          -4.6919    -5.3525     2.3362 C.ar         1    LIG   0.0000
   3 C3          -3.5020    -5.2048     1.6302 C.ar         1    LIG   0.0000
   4 C4          -2.8349    -3.9853     1.6741 C.ar         1    LIG   0.0000
   5 C5          -3.3583    -2.9323     2.4180 C.ar         1    LIG   0.0000
   6 N6          -2.6822    -1.7069     2.4594 N.am         1    LIG   0.0000
   7 C7          -1.4910    -1.5771     1.7399 C.2          1    LIG   0.0000
   8 O8          -1.0343    -2.5083     1.0950 O.2          1    LIG   0.0000
   9 C9          -0.7782    -0.3172     1.7444 C.2          1    LIG   0.0000
  10 C10          0.3150    -0.1864     1.0057 C.2          1    LIG   0.0000
  11 N11          1.0000     1.0000     1.0000 N.pl3        1    LIG   0.0000
  12 C12          2.4005     1.0000     1.0000 C.ar         1    LIG   0.0000
  13 C13          3.0684    -0.2205     1.0073 C.ar         1    LIG   0.0000
  14 C14          4.4592    -0.2523     1.0066 C.ar         1    LIG   0.0000
  15 C15          5.1824     0.9360     1.0003 C.ar         1    LIG   0.0000
  16 C16          4.5145     2.1570     0.9946 C.ar         1    LIG   0.0000
  17 C17          3.1238     2.1892     0.9942 C.ar         1    LIG   0.0000
  18 C18          2.4280     3.4615     0.9880 C.2          1    LIG   0.0000
  19 O19          1.2283     3.4893     0.9878 O.2          1    LIG   0.0000
  20 N20          3.1403     4.6318     0.9823 N.am         1    LIG   0.0000
  21 C21          2.4350     5.9215     0.9760 C.3          1    LIG   0.0000
  22 C22          1.9742     6.2394    -0.4352 C.3          1    LIG   0.0000
  23 C23          0.7445     7.1240    -0.4297 C.3          1    LIG   0.0000
  24 C24         -0.4011     6.1575    -0.2188 C.3          1    LIG   0.0000
  25 C25          0.1575     4.8317    -0.7008 C.3          1    LIG   0.0000
  26 O26          1.4885     5.0917    -1.1045 O.3          1    LIG   0.0000
  27 C27         -1.3126     0.7760     2.5450 C.ar         1    LIG   0.0000
  28 C28         -0.6178     1.9811     2.5808 C.ar         1    LIG   0.0000
  29 C29         -1.1139     3.0375     3.3319 C.ar         1    LIG   0.0000
  30 C30         -2.2991     2.8958     4.0448 C.ar         1    LIG   0.0000
  31 C31         -2.9890     1.6900     4.0090 C.ar         1    LIG   0.0000
  32 C32         -2.4985     0.6222     3.2651 C.ar         1    LIG   0.0000
  33 C33         -3.2065    -0.6433     3.2081 C.2          1    LIG   0.0000
  34 O34         -4.2605    -0.8239     3.8007 O.2          1    LIG   0.0000
  35 C35         -4.5483    -3.0799     3.1229 C.ar         1    LIG   0.0000
  36 C36         -5.2158    -4.2994     3.0785 C.ar         1    LIG   0.0000
  37 H            2.7120     6.6659    -0.9585 H            1    LIG   0.0000
  38 H           -6.2561    -6.6238     2.8473 H            1    LIG   0.0000
  39 H           -5.6720    -6.8967     1.3469 H            1    LIG   0.0000
  40 H           -4.8338    -7.4026     2.6539 H            1    LIG   0.0000
  41 H           -3.1311    -5.9659     1.0981 H            1    LIG   0.0000
  42 H           -1.9791    -3.8652     1.1710 H            1    LIG   0.0000
  43 H            0.6395    -0.9538     0.4528 H            1    LIG   0.0000
  44 H            0.5000     1.8660     0.9958 H            1    LIG   0.0000
  45 H            2.5487    -1.0749     1.0130 H            1    LIG   0.0000
  46 H            4.9392    -1.1296     1.0105 H            1    LIG   0.0000
  47 H            6.1821     0.9129     0.9999 H            1    LIG   0.0000
  48 H            5.0344     3.0112     0.9907 H            1    LIG   0.0000
  49 H            4.1400     4.6086     0.9825 H            1    LIG   0.0000
  50 H            3.0524     6.6406     1.2950 H            1    LIG   0.0000
  51 H            1.6414     5.8704     1.5823 H            1    LIG   0.0000
  52 H            0.6483     7.6044    -1.3015 H            1    LIG   0.0000
  53 H            0.7892     7.7901     0.3148 H            1    LIG   0.0000
  54 H           -0.6536     6.1085     0.7476 H            1    LIG   0.0000
  55 H           -1.1990     6.4262    -0.7585 H            1    LIG   0.0000
  56 H            0.1442     4.1595     0.0395 H            1    LIG   0.0000
  57 H           -0.3786     4.4888    -1.4721 H            1    LIG   0.0000
  58 H            0.2344     2.0855     2.0680 H            1    LIG   0.0000
  59 H           -0.6166     3.9046     3.3605 H            1    LIG   0.0000
  60 H           -2.6545     3.6604     4.5825 H            1    LIG   0.0000
  61 H           -3.8423     1.5896     4.5206 H            1    LIG   0.0000
  62 H           -4.9193    -2.3188     3.6549 H            1    LIG   0.0000
  63 H           -6.0724    -4.4190     3.5803 H            1    LIG   0.0000
@<TRIPOS>BOND
   1        1        2 1
   2        2        3 ar
   3        3        4 ar
   4        4        5 ar
   5        5        6 1
   6        6        7 am
   7        7        8 2
   8        7        9 1
   9        9       10 2
  10       10       11 1
  11       11       12 1
  12       12       13 ar
  13       13       14 ar
  14       14       15 ar
  15       15       16 ar
  16       16       17 ar
  17       17       12 ar
  18       17       18 1
  19       18       19 2
  20       18       20 am
  21       20       21 1
  22       21       22 1
  23       22       23 1
  24       23       24 1
  25       24       25 1
  26       25       26 1
  27       26       22 1
  28        9       27 1
  29       27       28 ar
  30       28       29 ar
  31       29       30 ar
  32       30       31 ar
  33       31       32 ar
  34       32       27 ar
  35       32       33 1
  36       33        6 am
  37       33       34 2
  38        5       35 ar
  39       35       36 ar
  40       36        2 ar
  41       22       37 1
  42        1       38 1
  43        1       39 1
  44        1       40 1
  45        3       41 1
  46        4       42 1
  47       10       43 1
  48       11       44 1
  49       13       45 1
  50       14       46 1
  51       15       47 1
  52       16       48 1
  53       20       49 1
  54       21       50 1
  55       21       51 1
  56       23       52 1
  57       23       53 1
  58       24       54 1
  59       24       55 1
  60       25       56 1
  61       25       57 1
  62       28       58 1
  63       29       59 1
  64       30       60 1
  65       31       61 1
  66       35       62 1
  67       36       63 1

@<TRIPOS>MOLECULE

  63   67
SMALL
USER_CHARGES
@<TRIPOS>ATOM
   1 C1          -5.4263    -6.6827     2.2923 C.3          1    LIG   0.0000
   2 C2          -4.6919    -5.3525     2.3362 C.ar         1    LIG   0.0000
   3 C3          -3.5020    -5.2048     1.6302 C.ar         1    LIG   0.0000
   4 C4          -2.8349    -3.9853     1.6741 C.ar         1    LIG   0.0000
   5 C5          -3.3583    -2.9323     2.4180 C.ar         1    LIG   0.0000
   6 N6          -2.6822    -1.7069     2.4594 N.am         1    LIG   0.0000
   7 C7          -1.4910    -1.5771     1.7399 C.2          1    LIG   0.0000
   8 O8          -1.0343    -2.5083     1.0950 O.2          1    LIG   0.0000
   9 C9          -0.7782    -0.3172     1.7444 C.2          1    LIG   0.0000
  10 C10          0.3150    -0.1864     1.0057 C.2          1    LIG   0.0000
  11 N11          1.0000     1.0000     1.0000 N.pl3        1    LIG   0.0000
  12 C12          2.4005     1.0000     1.0000 C.ar         1    LIG   0.0000
  13 C13          3.0684    -0.2205     1.0073 C.ar         1    LIG   0.0000
  14 C14          4.4592    -0.2523     1.0066 C.ar         1    LIG   0.0000
  15 C15          5.1824     0.9360     1.0003 C.ar         1    LIG   0.0000
  16 C16          4.5145     2.1570     0.9946 C.ar         1    LIG   0.0000
  17 C17          3.1238     2.1892     0.9942 C.ar         1    LIG   0.0000
  18 C18          2.4280     3.4615     0.9880 C.2          1    LIG   0.0000
  19 O19          1.2283     3.4893     0.9878 O.2          1    LIG   0.0000
  20 N20          3.1403     4.6318     0.9823 N.am         1    LIG   0.0000
  21 C21          2.4350     5.9215     0.9760 C.3          1    LIG   0.0000
  22 C22          1.9742     6.2394    -0.4352 C.3          1    LIG   0.0000
  23 C23          3.1489     6.5022    -1.3549 C.3          1    LIG   0.0000
  24 C24          3.5046     7.9495    -1.0905 C.3          1    LIG   0.0000
  25 C25          2.2191     8.5376    -0.5392 C.3          1    LIG   0.0000
  26 O26          1.2868     7.4739    -0.5020 O.3          1    LIG   0.0000
  27 C27         -1.3126     0.7760     2.5450 C.ar         1    LIG   0.0000
  28 C28         -0.6178     1.9811     2.5808 C.ar         1    LIG   0.0000
  29 C29         -1.1139     3.0375     3.3319 C.ar         1    LIG   0.0000
  30 C30         -2.2991     2.8958     4.0448 C.ar         1    LIG   0.0000
  31 C31         -2.9890     1.6900     4.0090 C.ar         1    LIG   0.0000
  32 C32         -2.4985     0.6222     3.2651 C.ar         1    LIG   0.0000
  33 C33         -3.2065    -0.6433     3.2081 C.2          1    LIG   0.0000
  34 O34         -4.2605    -0.8239     3.8007 O.2          1    LIG   0.0000
  35 C35         -4.5483    -3.0799     3.1229 C.ar         1    LIG   0.0000
  36 C36         -5.2158    -4.2994     3.0785 C.ar         1    LIG   0.0000
  37 H            1.4048     5.4999    -0.7944 H            1    LIG   0.0000
  38 H           -6.2561    -6.6238     2.8473 H            1    LIG   0.0000
  39 H           -5.6720    -6.8967     1.3469 H            1    LIG   0.0000
  40 H           -4.8338    -7.4026     2.6539 H            1    LIG   0.0000
  41 H           -3.1311    -5.9659     1.0981 H            1    LIG   0.0000
  42 H           -1.9791    -3.8652     1.1710 H            1    LIG   0.0000
  43 H            0.6395    -0.9538     0.4528 H            1    LIG   0.0000
  44 H            0.5000     1.8660     0.9958 H            1    LIG   0.0000
  45 H            2.5487    -1.0749     1.0130 H            1    LIG   0.0000
  46 H            4.9392    -1.1296     1.0105 H            1    LIG   0.0000
  47 H            6.1821     0.9129     0.9999 H            1    LIG   0.0000
  48 H            5.0344     3.0112     0.9907 H            1    LIG   0.0000
  49 H            4.1400     4.6086     0.9825 H            1    LIG   0.0000
  50 H            3.0524     6.6406     1.2950 H            1    LIG   0.0000
  51 H            1.6414     5.8704     1.5823 H            1    LIG   0.0000
  52 H            2.8883     6.3692    -2.3112 H            1    LIG   0.0000
  53 H            3.9163     5.9011    -1.1318 H            1    LIG   0.0000
  54 H            4.2447     8.0188    -0.4215 H            1    LIG   0.0000
  55 H            3.7748     8.4109    -1.9355 H            1    LIG   0.0000
  56 H            2.3695     8.8999     0.3807 H            1    LIG   0.0000
  57 H            1.8881     9.2689    -1.1355 H            1    LIG   0.0000
  58 H            0.2344     2.0855     2.0680 H            1    LIG   0.0000
  59 H           -0.6166     3.9046     3.3605 H            1    LIG   0.0000
  60 H           -2.6545     3.6604     4.5825 H            1    LIG   0.0000
  61 H           -3.8423     1.5896     4.5206 H            1    LIG   0.0000
  62 H           -4.9193    -2.3188     3.6549 H            1    LIG   0.0000
  63 H           -6.0724    -4.4190     3.5803 H            1    LIG   0.0000
@<TRIPOS>BOND
   1        1        2 1
   2        2        3 ar
   3        3        4 ar
   4        4        5 ar
   5        5        6 1
   6        6        7 am
   7        7        8 2
   8        7        9 1
   9        9       10 2
  10       10       11 1
  11       11       12 1
  12       12       13 ar
  13       13       14 ar
  14       14       15 ar
  15       15       16 ar
  16       16       17 ar
  17       17       12 ar
  18       17       18 1
  19       18       19 2
  20       18       20 am
  21       20       21 1
  22       21       22 1
  23       22       23 1
  24       23       24 1
  25       24       25 1
  26       25       26 1
  27       26       22 1
  28        9       27 1
  29       27       28 ar
  30       28       29 ar
  31       29       30 ar
  32       30       31 ar
  33       31       32 ar
  34       32       27 ar
  35       32       33 1
  36       33        6 am
  37       33       34 2
  38        5       35 ar
  39       35       36 ar
  40       36        2 ar
  41       22       37 1
  42        1       38 1
  43        1       39 1
  44        1       40 1
  45        3       41 1
  46        4       42 1
  47       10       43 1
  48       11       44 1
  49       13       45 1
  50       14       46 1
  51       15       47 1
  52       16       48 1
  53       20       49 1
  54       21       50 1
  55       21       51 1
  56       23       52 1
  57       23       53 1
  58       24       54 1
  59       24       55 1
  60       25       56 1
  61       25       57 1
  62       28       58 1
  63       29       59 1
  64       30       60 1
  65       31       61 1
  66       35       62 1
  67       36       63 1

@<TRIPOS>MOLECULE

  63   67
SMALL
USER_CHARGES
@<TRIPOS>ATOM
   1 C1          -5.4286    -6.6814     2.2908 C.3          1    LIG   0.0000
   2 C2          -4.6944    -5.3511     2.3370 C.ar         1    LIG   0.0000
   3 C3          -4.7984    -4.5517     3.4711 C.ar         1    LIG   0.0000
   4 C4          -4.1241    -3.3360     3.5074 C.ar         1    LIG   0.0000
   5 C5          -3.3583    -2.9323     2.4180 C.ar         1    LIG   0.0000
   6 N6          -2.6822    -1.7069     2.4594 N.am         1    LIG   0.0000
   7 C7          -1.4910    -1.5771     1.7399 C.2          1    LIG   0.0000
   8 O8          -1.0343    -2.5083     1.0950 O.2          1    LIG   0.0000
   9 C9          -0.7782    -0.3172     1.7444 C.2          1    LIG   0.0000
  10 C10          0.3150    -0.1864     1.0057 C.2          1    LIG   0.0000
  11 N11          1.0000     1.0000     1.0000 N.pl3        1    LIG   0.0000
  12 C12          2.4005     1.0000     1.0000 C.ar         1    LIG   0.0000
  13 C13          3.0684    -0.2205     1.0073 C.ar         1    LIG   0.0000
  14 C14          4.4592    -0.2523     1.0066 C.ar         1    LIG   0.0000
  15 C15          5.1824     0.9360     1.0003 C.ar         1    LIG   0.0000
  16 C16          4.5145     2.1570     0.9946 C.ar         1    LIG   0.0000
  17 C17          3.1238     2.1892     0.9942 C.ar         1    LIG   0.0000
  18 C18          2.4280     3.4615     0.9880 C.2          1    LIG   0.0000
  19 O19          1.2283     3.4893     0.9878 O.2          1    LIG   0.0000
  20 N20          3.1403     4.6318     0.9823 N.am         1    LIG   0.0000
  21 C21          2.5006     5.8837     1.4116 C.3          1    LIG   0.0000
  22 C22          2.4804     5.9475     2.9284 C.3          1    LIG   0.0000
  23 C23          2.4752     7.3797     3.4219 C.3          1    LIG   0.0000
  24 C24          3.9316     7.7892     3.3733 C.3          1    LIG   0.0000
  25 C25          4.6758     6.4686     3.4396 C.3          1    LIG   0.0000
  26 O26          3.6826     5.4623     3.4945 O.3          1    LIG   0.0000
  27 C27         -1.3126     0.7760     2.5450 C.ar         1    LIG   0.0000
  28 C28         -0.6178     1.9811     2.5808 C.ar         1    LIG   0.0000
  29 C29         -1.1139     3.0375     3.3319 C.ar         1    LIG   0.0000
  30 C30         -2.2991     2.8958     4.0448 C.ar         1    LIG   0.0000
  31 C31         -2.9890     1.6900     4.0090 C.ar         1    LIG   0.0000
  32 C32         -2.4985     0.6222     3.2651 C.ar         1    LIG   0.0000
  33 C33         -3.2065    -0.6433     3.2081 C.2          1    LIG   0.0000
  34 O34         -4.2605    -0.8239     3.8007 O.2          1    LIG   0.0000
  35 C35         -3.2537    -3.7321     1.2847 C.ar         1    LIG   0.0000
  36 C36         -3.9276    -4.9483     1.2487 C.ar         1    LIG   0.0000
  37 H            1.6940     5.4476     3.2911 H            1    LIG   0.0000
  38 H           -5.2517    -7.1295     1.4145 H            1    LIG   0.0000
  39 H           -5.1062    -7.2660     3.0352 H            1    LIG   0.0000
  40 H           -6.4108    -6.5236     2.3923 H            1    LIG   0.0000
  41 H           -5.3510    -4.8477     4.2502 H            1    LIG   0.0000
  42 H           -4.1896    -2.7518     4.3164 H            1    LIG   0.0000
  43 H            0.6395    -0.9538     0.4528 H            1    LIG   0.0000
  44 H            0.5000     1.8660     0.9958 H            1    LIG   0.0000
  45 H            2.5487    -1.0749     1.0130 H            1    LIG   0.0000
  46 H            4.9392    -1.1296     1.0105 H            1    LIG   0.0000
  47 H            6.1821     0.9129     0.9999 H            1    LIG   0.0000
  48 H            5.0344     3.0112     0.9907 H            1    LIG   0.0000
  49 H            4.0954     4.6343     0.6862 H            1    LIG   0.0000
  50 H            1.5634     5.9153     1.0642 H            1    LIG   0.0000
  51 H            3.0158     6.6617     1.0521 H            1    LIG   0.0000
  52 H            2.1222     7.4325     4.3561 H            1    LIG   0.0000
  53 H            1.9227     7.9599     2.8235 H            1    LIG   0.0000
  54 H            4.1382     8.2732     2.5229 H            1    LIG   0.0000
  55 H            4.1654     8.3704     4.1528 H            1    LIG   0.0000
  56 H            5.2458     6.3500     2.6266 H            1    LIG   0.0000
  57 H            5.2503     6.4344     4.2574 H            1    LIG   0.0000
  58 H            0.2344     2.0855     2.0680 H            1    LIG   0.0000
  59 H           -0.6166     3.9046     3.3605 H            1    LIG   0.0000
  60 H           -2.6545     3.6604     4.5825 H            1    LIG   0.0000
  61 H           -3.8423     1.5896     4.5206 H            1    LIG   0.0000
  62 H           -2.7010    -3.4363     0.5056 H            1    LIG   0.0000
  63 H           -3.8608    -5.5331     0.4404 H            1    LIG   0.0000
@<TRIPOS>BOND
   1        1        2 1
   2        2        3 ar
   3        3        4 ar
   4        4        5 ar
   5        5        6 1
   6        6        7 am
   7        7        8 2
   8        7        9 1
   9        9       10 2
  10       10       11 1
  11       11       12 1
  12       12       13 ar
  13       13       14 ar
  14       14       15 ar
  15       15       16 ar
  16       16       17 ar
  17       17       12 ar
  18       17       18 1
  19       18       19 2
  20       18       20 am
  21       20       21 1
  22       21       22 1
  23       22       23 1
  24       23       24 1
  25       24       25 1
  26       25       26 1
  27       26       22 1
  28        9       27 1
  29       27       28 ar
  30       28       29 ar
  31       29       30 ar
  32       30       31 ar
  33       31       32 ar
  34       32       27 ar
  35       32       33 1
  36       33        6 am
  37       33       34 2
  38        5       35 ar
  39       35       36 ar
  40       36        2 ar
  41       22       37 1
  42        1       38 1
  43        1       39 1
  44        1       40 1
  45        3       41 1
  46        4       42 1
  47       10       43 1
  48       11       44 1
  49       13       45 1
  50       14       46 1
  51       15       47 1
  52       16       48 1
  53       20       49 1
  54       21       50 1
  55       21       51 1
  56       23       52 1
  57       23       53 1
  58       24       54 1
  59       24       55 1
  60       25       56 1
  61       25       57 1
  62       28       58 1
  63       29       59 1
  64       30       60 1
  65       31       61 1
  66       35       62 1
  67       36       63 1

@<TRIPOS>MOLECULE

  63   67
SMALL
USER_CHARGES
@<TRIPOS>ATOM
   1 C1          -5.4286    -6.6814     2.2908 C.3          1    LIG   0.0000
   2 C2          -4.6944    -5.3511     2.3370 C.ar         1    LIG   0.0000
   3 C3          -4.7984    -4.5517     3.4711 C.ar         1    LIG   0.0000
   4 C4          -4.1241    -3.3360     3.5074 C.ar         1    LIG   0.0000
   5 C5          -3.3583    -2.9323     2.4180 C.ar         1    LIG   0.0000
   6 N6          -2.6822    -1.7069     2.4594 N.am         1    LIG   0.0000
   7 C7          -1.4910    -1.5771     1.7399 C.2          1    LIG   0.0000
   8 O8          -1.0343    -2.5083     1.0950 O.2          1    LIG   0.0000
   9 C9          -0.7782    -0.3172     1.7444 C.2          1    LIG   0.0000
  10 C10          0.3150    -0.1864     1.0057 C.2          1    LIG   0.0000
  11 N11          1.0000     1.0000     1.0000 N.pl3        1    LIG   0.0000
  12 C12          2.4005     1.0000     1.0000 C.ar         1    LIG   0.0000
  13 C13          3.0684    -0.2205     1.0073 C.ar         1    LIG   0.0000
  14 C14          4.4592    -0.2523     1.0066 C.ar         1    LIG   0.0000
  15 C15          5.1824     0.9360     1.0003 C.ar         1    LIG   0.0000
  16 C16          4.5145     2.1570     0.9946 C.ar         1    LIG   0.0000
  17 C17          3.1238     2.1892     0.9942 C.ar         1    LIG   0.0000
  18 C18          2.4280     3.4615     0.9880 C.2          1    LIG   0.0000
  19 O19          1.2283     3.4893     0.9878 O.2          1    LIG   0.0000
  20 N20          3.1403     4.6318     0.9823 N.am         1    LIG   0.0000
  21 C21          2.5006     5.8795     0.5408 C.3          1    LIG   0.0000
  22 C22          1.6551     6.4439     1.6726 C.3          1    LIG   0.0000
  23 C23          0.6228     5.4359     2.1373 C.3          1    LIG   0.0000
  24 C24         -0.3291     6.3286     2.9128 C.3          1    LIG   0.0000
  25 C25         -0.1422     7.6903     2.2794 C.3          1    LIG   0.0000
  26 O26          0.8320     7.5157     1.2622 O.3          1    LIG   0.0000
  27 C27         -1.3126     0.7760     2.5450 C.ar         1    LIG   0.0000
  28 C28         -0.6178     1.9811     2.5808 C.ar         1    LIG   0.0000
  29 C29         -1.1139     3.0375     3.3319 C.ar         1    LIG   0.0000
  30 C30         -2.2991     2.8958     4.0448 C.ar         1    LIG   0.0000
  31 C31         -2.9890     1.6900     4.0090 C.ar         1    LIG   0.0000
  32 C32         -2.4985     0.6222     3.2651 C.ar         1    LIG   0.0000
  33 C33         -3.2065    -0.6433     3.2081 C.2          1    LIG   0.0000
  34 O34         -4.2605    -0.8239     3.8007 O.2          1    LIG   0.0000
  35 C35         -3.2537    -3.7321     1.2847 C.ar         1    LIG   0.0000
  36 C36         -3.9276    -4.9483     1.2487 C.ar         1    LIG   0.0000
  37 H            2.2370     6.7240     2.4361 H            1    LIG   0.0000
  38 H           -5.2517    -7.1295     1.4145 H            1    LIG   0.0000
  39 H           -5.1062    -7.2660     3.0352 H            1    LIG   0.0000
  40 H           -6.4108    -6.5236     2.3923 H            1    LIG   0.0000
  41 H           -5.3510    -4.8477     4.2502 H            1    LIG   0.0000
  42 H           -4.1896    -2.7518     4.3164 H            1    LIG   0.0000
  43 H            0.6395    -0.9538     0.4528 H            1    LIG   0.0000
  44 H            0.5000     1.8660     0.9958 H            1    LIG   0.0000
  45 H            2.5487    -1.0749     1.0130 H            1    LIG   0.0000
  46 H            4.9392    -1.1296     1.0105 H            1    LIG   0.0000
  47 H            6.1821     0.9129     0.9999 H            1    LIG   0.0000
  48 H            5.0344     3.0112     0.9907 H            1    LIG   0.0000
  49 H            4.0954     4.6372     1.2786 H            1    LIG   0.0000
  50 H            1.9176     5.6934    -0.2500 H            1    LIG   0.0000
  51 H            3.2043     6.5433     0.2874 H            1    LIG   0.0000
  52 H            1.0310     4.7371     2.7247 H            1    LIG   0.0000
  53 H            0.1657     4.9960     1.3643 H            1    LIG   0.0000
  54 H           -1.2734     6.0152     2.8120 H            1    LIG   0.0000
  55 H           -0.0869     6.3504     3.8827 H            1    LIG   0.0000
  56 H           -1.0031     8.0116     1.8851 H            1    LIG   0.0000
  57 H            0.1793     8.3491     2.9596 H            1    LIG   0.0000
  58 H            0.2344     2.0855     2.0680 H            1    LIG   0.0000
  59 H           -0.6166     3.9046     3.3605 H            1    LIG   0.0000
  60 H           -2.6545     3.6604     4.5825 H            1    LIG   0.0000
  61 H           -3.8423     1.5896     4.5206 H            1    LIG   0.0000
  62 H           -2.7010    -3.4363     0.5056 H            1    LIG   0.0000
  63 H           -3.8608    -5.5331     0.4404 H            1    LIG   0.0000
@<TRIPOS>BOND
   1        1        2 1
   2        2        3 ar
   3        3        4 ar
   4        4        5 ar
   5        5        6 1
   6        6        7 am
   7        7        8 2
   8        7        9 1
   9        9       10 2
  10       10       11 1
  11       11       12 1
  12       12       13 ar
  13       13       14 ar
  14       14       15 ar
  15       15       16 ar
  16       16       17 ar
  17       17       12 ar
  18       17       18 1
  19       18       19 2
  20       18       20 am
  21       20       21 1
  22       21       22 1
  23       22       23 1
  24       23       24 1
  25       24       25 1
  26       25       26 1
  27       26       22 1
  28        9       27 1
  29       27       28 ar
  30       28       29 ar
  31       29       30 ar
  32       30       31 ar
  33       31       32 ar
  34       32       27 ar
  35       32       33 1
  36       33        6 am
  37       33       34 2
  38        5       35 ar
  39       35       36 ar
  40       36        2 ar
  41       22       37 1
  42        1       38 1
  43        1       39 1
  44        1       40 1
  45        3       41 1
  46        4       42 1
  47       10       43 1
  48       11       44 1
  49       13       45 1
  50       14       46 1
  51       15       47 1
  52       16       48 1
  53       20       49 1
  54       21       50 1
  55       21       51 1
  56       23       52 1
  57       23       53 1
  58       24       54 1
  59       24       55 1
  60       25       56 1
  61       25       57 1
  62       28       58 1
  63       29       59 1
  64       30       60 1
  65       31       61 1
  66       35       62 1
  67       36       63 1

@<TRIPOS>MOLECULE

  63   67
SMALL
USER_CHARGES
@<TRIPOS>ATOM
   1 C1          -5.4286    -6.6813     2.2914 C.3          1    LIG   0.0000
   2 C2          -4.6941    -5.3513     2.3374 C.ar         1    LIG   0.0000
   3 C3          -4.4406    -4.7524     3.5675 C.ar         1    LIG   0.0000
   4 C4          -3.7679    -3.5358     3.6030 C.ar         1    LIG   0.0000
   5 C5          -3.3583    -2.9323     2.4180 C.ar         1    LIG   0.0000
   6 N6          -2.6822    -1.7069     2.4594 N.am         1    LIG   0.0000
   7 C7          -1.4910    -1.5771     1.7399 C.2          1    LIG   0.0000
   8 O8          -1.0343    -2.5083     1.0950 O.2          1    LIG   0.0000
   9 C9          -0.7782    -0.3172     1.7444 C.2          1    LIG   0.0000
  10 C10          0.3150    -0.1864     1.0057 C.2          1    LIG   0.0000
  11 N11          1.0000     1.0000     1.0000 N.pl3        1    LIG   0.0000
  12 C12          2.4005     1.0000     1.0000 C.ar         1    LIG   0.0000
  13 C13          3.0684    -0.2205     1.0073 C.ar         1    LIG   0.0000
  14 C14          4.4592    -0.2523     1.0066 C.ar         1    LIG   0.0000
  15 C15          5.1824     0.9360     1.0003 C.ar         1    LIG   0.0000
  16 C16          4.5145     2.1570     0.9946 C.ar         1    LIG   0.0000
  17 C17          3.1238     2.1892     0.9942 C.ar         1    LIG   0.0000
  18 C18          2.4280     3.4615     0.9880 C.2          1    LIG   0.0000
  19 O19          1.2283     3.4893     0.9878 O.2          1    LIG   0.0000
  20 N20          3.1403     4.6318     0.9823 N.am         1    LIG   0.0000
  21 C21          2.5807     5.8359     1.6130 C.3          1    LIG   0.0000
  22 C22          2.2144     6.8479     0.5377 C.3          1    LIG   0.0000
  23 C23          1.4794     8.0331     1.1318 C.3          1    LIG   0.0000
  24 C24          0.8654     8.6497    -0.1120 C.3          1    LIG   0.0000
  25 C25          0.7423     7.4836    -1.0688 C.3          1    LIG   0.0000
  26 O26          1.2564     6.3565    -0.3763 O.3          1    LIG   0.0000
  27 C27         -1.3126     0.7760     2.5450 C.ar         1    LIG   0.0000
  28 C28         -0.6178     1.9811     2.5808 C.ar         1    LIG   0.0000
  29 C29         -1.1139     3.0375     3.3319 C.ar         1    LIG   0.0000
  30 C30         -2.2991     2.8958     4.0448 C.ar         1    LIG   0.0000
  31 C31         -2.9890     1.6900     4.0090 C.ar         1    LIG   0.0000
  32 C32         -2.4985     0.6222     3.2651 C.ar         1    LIG   0.0000
  33 C33         -3.2065    -0.6433     3.2081 C.2          1    LIG   0.0000
  34 O34         -4.2605    -0.8239     3.8007 O.2          1    LIG   0.0000
  35 C35         -3.6111    -3.5317     1.1885 C.ar         1    LIG   0.0000
  36 C36         -4.2832    -4.7488     1.1530 C.ar         1    LIG   0.0000
  37 H            3.0340     7.1534     0.0530 H            1    LIG   0.0000
  38 H           -5.5299    -6.9735     1.3404 H            1    LIG   0.0000
  39 H           -4.9066    -7.3681     2.7972 H            1    LIG   0.0000
  40 H           -6.3326    -6.5774     2.7062 H            1    LIG   0.0000
  41 H           -4.7383    -5.1913     4.4152 H            1    LIG   0.0000
  42 H           -3.5785    -3.0946     4.4802 H            1    LIG   0.0000
  43 H            0.6395    -0.9538     0.4528 H            1    LIG   0.0000
  44 H            0.5000     1.8660     0.9958 H            1    LIG   0.0000
  45 H            2.5487    -1.0749     1.0130 H            1    LIG   0.0000
  46 H            4.9392    -1.1296     1.0105 H            1    LIG   0.0000
  47 H            6.1821     0.9129     0.9999 H            1    LIG   0.0000
  48 H            5.0344     3.0112     0.9907 H            1    LIG   0.0000
  49 H            4.0410     4.6668     0.5492 H            1    LIG   0.0000
  50 H            3.2593     6.2354     2.2294 H            1    LIG   0.0000
  51 H            1.7622     5.5904     2.1324 H            1    LIG   0.0000
  52 H            2.1085     8.6662     1.5829 H            1    LIG   0.0000
  53 H            0.7774     7.7413     1.7814 H            1    LIG   0.0000
  54 H           -0.0323     9.0411     0.0902 H            1    LIG   0.0000
  55 H            1.4610     9.3590    -0.4893 H            1    LIG   0.0000
  56 H           -0.2156     7.3342    -1.3136 H            1    LIG   0.0000
  57 H            1.2752     7.6557    -1.8973 H            1    LIG   0.0000
  58 H            0.2344     2.0855     2.0680 H            1    LIG   0.0000
  59 H           -0.6166     3.9046     3.3605 H            1    LIG   0.0000
  60 H           -2.6545     3.6604     4.5825 H            1    LIG   0.0000
  61 H           -3.8423     1.5896     4.5206 H            1    LIG   0.0000
  62 H           -3.3132    -3.0929     0.3406 H            1    LIG   0.0000
  63 H           -4.4712    -5.1908     0.2759 H            1    LIG   0.0000
@<TRIPOS>BOND
   1        1        2 1
   2        2        3 ar
   3        3        4 ar
   4        4        5 ar
   5        5        6 1
   6        6        7 am
   7        7        8 2
   8        7        9 1
   9        9       10 2
  10       10       11 1
  11       11       12 1
  12       12       13 ar
  13       13       14 ar
  14       14       15 ar
  15       15       16 ar
  16       16       17 ar
  17       17       12 ar
  18       17       18 1
  19       18       19 2
  20       18       20 am
  21       20       21 1
  22       21       22 1
  23       22       23 1
  24       23       24 1
  25       24       25 1
  26       25       26 1
  27       26       22 1
  28        9       27 1
  29       27       28 ar
  30       28       29 ar
  31       29       30 ar
  32       30       31 ar
  33       31       32 ar
  34       32       27 ar
  35       32       33 1
  36       33        6 am
  37       33       34 2
  38        5       35 ar
  39       35       36 ar
  40       36        2 ar
  41       22       37 1
  42        1       38 1
  43        1       39 1
  44        1       40 1
  45        3       41 1
  46        4       42 1
  47       10       43 1
  48       11       44 1
  49       13       45 1
  50       14       46 1
  51       15       47 1
  52       16       48 1
  53       20       49 1
  54       21       50 1
  55       21       51 1
  56       23       52 1
  57       23       53 1
  58       24       54 1
  59       24       55 1
  60       25       56 1
  61       25       57 1
  62       28       58 1
  63       29       59 1
  64       30       60 1
  65       31       61 1
  66       35       62 1
  67       36       63 1

@<TRIPOS>MOLECULE

  63   67
SMALL
USER_CHARGES
@<TRIPOS>ATOM
   1 C1          -5.4274    -6.6821     2.2928 C.3          1    LIG   0.0000
   2 C2          -4.6924    -5.3522     2.3374 C.ar         1    LIG   0.0000
   3 C3          -3.3331    -5.3319     2.6339 C.ar         1    LIG   0.0000
   4 C4          -2.6662    -4.1122     2.6729 C.ar         1    LIG   0.0000
   5 C5          -3.3583    -2.9323     2.4180 C.ar         1    LIG   0.0000
   6 N6          -2.6822    -1.7069     2.4594 N.am         1    LIG   0.0000
   7 C7          -1.4910    -1.5771     1.7399 C.2          1    LIG   0.0000
   8 O8          -1.0343    -2.5083     1.0950 O.2          1    LIG   0.0000
   9 C9          -0.7782    -0.3172     1.7444 C.2          1    LIG   0.0000
  10 C10          0.3150    -0.1864     1.0057 C.2          1    LIG   0.0000
  11 N11          1.0000     1.0000     1.0000 N.pl3        1    LIG   0.0000
  12 C12          2.4005     1.0000     1.0000 C.ar         1    LIG   0.0000
  13 C13          3.0684    -0.2205     1.0073 C.ar         1    LIG   0.0000
  14 C14          4.4592    -0.2523     1.0066 C.ar         1    LIG   0.0000
  15 C15          5.1824     0.9360     1.0003 C.ar         1    LIG   0.0000
  16 C16          4.5145     2.1570     0.9946 C.ar         1    LIG   0.0000
  17 C17          3.1238     2.1892     0.9942 C.ar         1    LIG   0.0000
  18 C18          2.4280     3.4615     0.9880 C.2          1    LIG   0.0000
  19 O19          1.2283     3.4893     0.9878 O.2          1    LIG   0.0000
  20 N20          3.1403     4.6318     0.9823 N.am         1    LIG   0.0000
  21 C21          2.5807     5.8297     0.3399 C.3          1    LIG   0.0000
  22 C22          1.5801     6.4877     1.2781 C.3          1    LIG   0.0000
  23 C23          1.1060     7.8168     0.7247 C.3          1    LIG   0.0000
  24 C24          0.4988     8.4496     1.9639 C.3          1    LIG   0.0000
  25 C25          1.2423     7.7908     3.1056 C.3          1    LIG   0.0000
  26 O26          2.1562     6.8867     2.5043 O.3          1    LIG   0.0000
  27 C27         -1.3126     0.7760     2.5450 C.ar         1    LIG   0.0000
  28 C28         -0.6178     1.9811     2.5808 C.ar         1    LIG   0.0000
  29 C29         -1.1139     3.0375     3.3319 C.ar         1    LIG   0.0000
  30 C30         -2.2991     2.8958     4.0448 C.ar         1    LIG   0.0000
  31 C31         -2.9890     1.6900     4.0090 C.ar         1    LIG   0.0000
  32 C32         -2.4985     0.6222     3.2651 C.ar         1    LIG   0.0000
  33 C33         -3.2065    -0.6433     3.2081 C.2          1    LIG   0.0000
  34 O34         -4.2605    -0.8239     3.8007 O.2          1    LIG   0.0000
  35 C35         -4.7170    -2.9530     2.1206 C.ar         1    LIG   0.0000
  36 C36         -5.3838    -4.1730     2.0810 C.ar         1    LIG   0.0000
  37 H            0.8024     5.8802     1.4398 H            1    LIG   0.0000
  38 H           -6.3889    -6.5241     2.0679 H            1    LIG   0.0000
  39 H           -5.0140    -7.2682     1.5960 H            1    LIG   0.0000
  40 H           -5.3628    -7.1287     3.1852 H            1    LIG   0.0000
  41 H           -2.8419    -6.1836     2.8167 H            1    LIG   0.0000
  42 H           -1.6892    -4.0831     2.8842 H            1    LIG   0.0000
  43 H            0.6395    -0.9538     0.4528 H            1    LIG   0.0000
  44 H            0.5000     1.8660     0.9958 H            1    LIG   0.0000
  45 H            2.5487    -1.0749     1.0130 H            1    LIG   0.0000
  46 H            4.9392    -1.1296     1.0105 H            1    LIG   0.0000
  47 H            6.1821     0.9129     0.9999 H            1    LIG   0.0000
  48 H            5.0344     3.0112     0.9907 H            1    LIG   0.0000
  49 H            4.0409     4.6710     1.4152 H            1    LIG   0.0000
  50 H            2.1204     5.5687    -0.5085 H            1    LIG   0.0000
  51 H            3.3182     6.4732     0.1347 H            1    LIG   0.0000
  52 H            0.4234     7.6919     0.0047 H            1    LIG   0.0000
  53 H            1.8677     8.3598     0.3713 H            1    LIG   0.0000
  54 H            0.6450     9.4388     1.9670 H            1    LIG   0.0000
  55 H           -0.4810     8.2573     2.0186 H            1    LIG   0.0000
  56 H            1.7337     8.4767     3.6423 H            1    LIG   0.0000
  57 H            0.6045     7.2983     3.6978 H            1    LIG   0.0000
  58 H            0.2344     2.0855     2.0680 H            1    LIG   0.0000
  59 H           -0.6166     3.9046     3.3605 H            1    LIG   0.0000
  60 H           -2.6545     3.6604     4.5825 H            1    LIG   0.0000
  61 H           -3.8423     1.5896     4.5206 H            1    LIG   0.0000
  62 H           -5.2082    -2.1014     1.9377 H            1    LIG   0.0000
  63 H           -6.3604    -4.2022     1.8682 H            1    LIG   0.0000
@<TRIPOS>BOND
   1        1        2 1
   2        2        3 ar
   3        3        4 ar
   4        4        5 ar
   5        5        6 1
   6        6        7 am
   7        7        8 2
   8        7        9 1
   9        9       10 2
  10       10       11 1
  11       11       12 1
  12       12       13 ar
  13       13       14 ar
  14       14       15 ar
  15       15       16 ar
  16       16       17 ar
  17       17       12 ar
  18       17       18 1
  19       18       19 2
  20       18       20 am
  21       20       21 1
  22       21       22 1
  23       22       23 1
  24       23       24 1
  25       24       25 1
  26       25       26 1
  27       26       22 1
  28        9       27 1
  29       27       28 ar
  30       28       29 ar
  31       29       30 ar
  32       30       31 ar
  33       31       32 ar
  34       32       27 ar
  35       32       33 1
  36       33        6 am
  37       33       34 2
  38        5       35 ar
  39       35       36 ar
  40       36        2 ar
  41       22       37 1
  42        1       38 1
  43        1       39 1
  44        1       40 1
  45        3       41 1
  46        4       42 1
  47       10       43 1
  48       11       44 1
  49       13       45 1
  50       14       46 1
  51       15       47 1
  52       16       48 1
  53       20       49 1
  54       21       50 1
  55       21       51 1
  56       23       52 1
  57       23       53 1
  58       24       54 1
  59       24       55 1
  60       25       56 1
  61       25       57 1
  62       28       58 1
  63       29       59 1
  64       30       60 1
  65       31       61 1
  66       35       62 1
  67       36       63 1

@<TRIPOS>MOLECULE

  63   67
SMALL
USER_CHARGES
@<TRIPOS>ATOM
   1 C1          -5.4263    -6.6827     2.2923 C.3          1    LIG   0.0000
   2 C2          -4.6919    -5.3525     2.3362 C.ar         1    LIG   0.0000
   3 C3          -3.5020    -5.2048     1.6302 C.ar         1    LIG   0.0000
   4 C4          -2.8349    -3.9853     1.6741 C.ar         1    LIG   0.0000
   5 C5          -3.3583    -2.9323     2.4180 C.ar         1    LIG   0.0000
   6 N6          -2.6822    -1.7069     2.4594 N.am         1    LIG   0.0000
   7 C7          -1.4910    -1.5771     1.7399 C.2          1    LIG   0.0000
   8 O8          -1.0343    -2.5083     1.0950 O.2          1    LIG   0.0000
   9 C9          -0.7782    -0.3172     1.7444 C.2          1    LIG   0.0000
  10 C10          0.3150    -0.1864     1.0057 C.2          1    LIG   0.0000
  11 N11          1.0000     1.0000     1.0000 N.pl3        1    LIG   0.0000
  12 C12          2.4005     1.0000     1.0000 C.ar         1    LIG   0.0000
  13 C13          3.0684    -0.2205     1.0073 C.ar         1    LIG   0.0000
  14 C14          4.4592    -0.2523     1.0066 C.ar         1    LIG   0.0000
  15 C15          5.1824     0.9360     1.0003 C.ar         1    LIG   0.0000
  16 C16          4.5145     2.1570     0.9946 C.ar         1    LIG   0.0000
  17 C17          3.1238     2.1892     0.9942 C.ar         1    LIG   0.0000
  18 C18          2.4280     3.4615     0.9880 C.2          1    LIG   0.0000
  19 O19          1.2283     3.4893     0.9878 O.2          1    LIG   0.0000
  20 N20          3.1403     4.6318     0.9823 N.am         1    LIG   0.0000
  21 C21          2.5807     5.8297     0.3399 C.3          1    LIG   0.0000
  22 C22          2.7864     5.7415    -1.1617 C.3          1    LIG   0.0000
  23 C23          2.2575     4.4350    -1.7168 C.3          1    LIG   0.0000
  24 C24          3.3738     3.4470    -1.4547 C.3          1    LIG   0.0000
  25 C25          4.6064     4.3242    -1.3383 C.3          1    LIG   0.0000
  26 O26          4.1562     5.6553    -1.5041 O.3          1    LIG   0.0000
  27 C27         -1.3126     0.7760     2.5450 C.ar         1    LIG   0.0000
  28 C28         -0.6178     1.9811     2.5808 C.ar         1    LIG   0.0000
  29 C29         -1.1139     3.0375     3.3319 C.ar         1    LIG   0.0000
  30 C30         -2.2991     2.8958     4.0448 C.ar         1    LIG   0.0000
  31 C31         -2.9890     1.6900     4.0090 C.ar         1    LIG   0.0000
  32 C32         -2.4985     0.6222     3.2651 C.ar         1    LIG   0.0000
  33 C33         -3.2065    -0.6433     3.2081 C.2          1    LIG   0.0000
  34 O34         -4.2605    -0.8239     3.8007 O.2          1    LIG   0.0000
  35 C35         -4.5483    -3.0799     3.1229 C.ar         1    LIG   0.0000
  36 C36         -5.2158    -4.2994     3.0785 C.ar         1    LIG   0.0000
  37 H            2.3570     6.5187    -1.6218 H            1    LIG   0.0000
  38 H           -6.2561    -6.6238     2.8473 H            1    LIG   0.0000
  39 H           -5.6720    -6.8967     1.3469 H            1    LIG   0.0000
  40 H           -4.8338    -7.4026     2.6539 H            1    LIG   0.0000
  41 H           -3.1311    -5.9659     1.0981 H            1    LIG   0.0000
  42 H           -1.9791    -3.8652     1.1710 H            1    LIG   0.0000
  43 H            0.6395    -0.9538     0.4528 H            1    LIG   0.0000
  44 H            0.5000     1.8660     0.9958 H            1    LIG   0.0000
  45 H            2.5487    -1.0749     1.0130 H            1    LIG   0.0000
  46 H            4.9392    -1.1296     1.0105 H            1    LIG   0.0000
  47 H            6.1821     0.9129     0.9999 H            1    LIG   0.0000
  48 H            5.0344     3.0112     0.9907 H            1    LIG   0.0000
  49 H            4.0409     4.6710     1.4152 H            1    LIG   0.0000
  50 H            3.0427     6.6436     0.6924 H            1    LIG   0.0000
  51 H            1.6027     5.8889     0.5396 H            1    LIG   0.0000
  52 H            2.0750     4.5132    -2.6969 H            1    LIG   0.0000
  53 H            1.4210     4.1602    -1.2429 H            1    LIG   0.0000
  54 H            3.2127     2.9431    -0.6060 H            1    LIG   0.0000
  55 H            3.4651     2.8018    -2.2132 H            1    LIG   0.0000
  56 H            5.0301     4.2103    -0.4397 H            1    LIG   0.0000
  57 H            5.2678     4.0900    -2.0508 H            1    LIG   0.0000
  58 H            0.2344     2.0855     2.0680 H            1    LIG   0.0000
  59 H           -0.6166     3.9046     3.3605 H            1    LIG   0.0000
  60 H           -2.6545     3.6604     4.5825 H            1    LIG   0.0000
  61 H           -3.8423     1.5896     4.5206 H            1    LIG   0.0000
  62 H           -4.9193    -2.3188     3.6549 H            1    LIG   0.0000
  63 H           -6.0724    -4.4190     3.5803 H            1    LIG   0.0000
@<TRIPOS>BOND
   1        1        2 1
   2        2        3 ar
   3        3        4 ar
   4        4        5 ar
   5        5        6 1
   6        6        7 am
   7        7        8 2
   8        7        9 1
   9        9       10 2
  10       10       11 1
  11       11       12 1
  12       12       13 ar
  13       13       14 ar
  14       14       15 ar
  15       15       16 ar
  16       16       17 ar
  17       17       12 ar
  18       17       18 1
  19       18       19 2
  20       18       20 am
  21       20       21 1
  22       21       22 1
  23       22       23 1
  24       23       24 1
  25       24       25 1
  26       25       26 1
  27       26       22 1
  28        9       27 1
  29       27       28 ar
  30       28       29 ar
  31       29       30 ar
  32       30       31 ar
  33       31       32 ar
  34       32       27 ar
  35       32       33 1
  36       33        6 am
  37       33       34 2
  38        5       35 ar
  39       35       36 ar
  40       36        2 ar
  41       22       37 1
  42        1       38 1
  43        1       39 1
  44        1       40 1
  45        3       41 1
  46        4       42 1
  47       10       43 1
  48       11       44 1
  49       13       45 1
  50       14       46 1
  51       15       47 1
  52       16       48 1
  53       20       49 1
  54       21       50 1
  55       21       51 1
  56       23       52 1
  57       23       53 1
  58       24       54 1
  59       24       55 1
  60       25       56 1
  61       25       57 1
  62       28       58 1
  63       29       59 1
  64       30       60 1
  65       31       61 1
  66       35       62 1
  67       36       63 1

@<TRIPOS>MOLECULE

  63   67
SMALL
USER_CHARGES
@<TRIPOS>ATOM
   1 C1          -5.4286    -6.6814     2.2908 C.3          1    LIG   0.0000
   2 C2          -4.6944    -5.3511     2.3370 C.ar         1    LIG   0.0000
   3 C3          -4.7984    -4.5517     3.4711 C.ar         1    LIG   0.0000
   4 C4          -4.1241    -3.3360     3.5074 C.ar         1    LIG   0.0000
   5 C5          -3.3583    -2.9323     2.4180 C.ar         1    LIG   0.0000
   6 N6          -2.6822    -1.7069     2.4594 N.am         1    LIG   0.0000
   7 C7          -1.4910    -1.5771     1.7399 C.2          1    LIG   0.0000
   8 O8          -1.0343    -2.5083     1.0950 O.2          1    LIG   0.0000
   9 C9          -0.7782    -0.3172     1.7444 C.2          1    LIG   0.0000
  10 C10          0.3150    -0.1864     1.0057 C.2          1    LIG   0.0000
  11 N11          1.0000     1.0000     1.0000 N.pl3        1    LIG   0.0000
  12 C12          2.4005     1.0000     1.0000 C.ar         1    LIG   0.0000
  13 C13          3.0684    -0.2205     1.0073 C.ar         1    LIG   0.0000
  14 C14          4.4592    -0.2523     1.0066 C.ar         1    LIG   0.0000
  15 C15          5.1824     0.9360     1.0003 C.ar         1    LIG   0.0000
  16 C16          4.5145     2.1570     0.9946 C.ar         1    LIG   0.0000
  17 C17          3.1238     2.1892     0.9942 C.ar         1    LIG   0.0000
  18 C18          2.4280     3.4615     0.9880 C.2          1    LIG   0.0000
  19 O19          1.2283     3.4893     0.9878 O.2          1    LIG   0.0000
  20 N20          3.1403     4.6318     0.9823 N.am         1    LIG   0.0000
  21 C21          2.5807     5.8297     0.3399 C.3          1    LIG   0.0000
  22 C22          2.7864     5.7415    -1.1617 C.3          1    LIG   0.0000
  23 C23          4.1213     5.1111    -1.5013 C.3          1    LIG   0.0000
  24 C24          5.1069     6.2537    -1.3822 C.3          1    LIG   0.0000
  25 C25          4.2461     7.4885    -1.5735 C.3          1    LIG   0.0000
  26 O26          2.9234     7.0193    -1.7530 O.3          1    LIG   0.0000
  27 C27         -1.3126     0.7760     2.5450 C.ar         1    LIG   0.0000
  28 C28         -0.6178     1.9811     2.5808 C.ar         1    LIG   0.0000
  29 C29         -1.1139     3.0375     3.3319 C.ar         1    LIG   0.0000
  30 C30         -2.2991     2.8958     4.0448 C.ar         1    LIG   0.0000
  31 C31         -2.9890     1.6900     4.0090 C.ar         1    LIG   0.0000
  32 C32         -2.4985     0.6222     3.2651 C.ar         1    LIG   0.0000
  33 C33         -3.2065    -0.6433     3.2081 C.2          1    LIG   0.0000
  34 O34         -4.2605    -0.8239     3.8007 O.2          1    LIG   0.0000
  35 C35         -3.2537    -3.7321     1.2847 C.ar         1    LIG   0.0000
  36 C36         -3.9276    -4.9483     1.2487 C.ar         1    LIG   0.0000
  37 H            2.0386     5.2341    -1.5900 H            1    LIG   0.0000
  38 H           -5.2517    -7.1295     1.4145 H            1    LIG   0.0000
  39 H           -5.1062    -7.2660     3.0352 H            1    LIG   0.0000
  40 H           -6.4108    -6.5236     2.3923 H            1    LIG   0.0000
  41 H           -5.3510    -4.8477     4.2502 H            1    LIG   0.0000
  42 H           -4.1896    -2.7518     4.3164 H            1    LIG   0.0000
  43 H            0.6395    -0.9538     0.4528 H            1    LIG   0.0000
  44 H            0.5000     1.8660     0.9958 H            1    LIG   0.0000
  45 H            2.5487    -1.0749     1.0130 H            1    LIG   0.0000
  46 H            4.9392    -1.1296     1.0105 H            1    LIG   0.0000
  47 H            6.1821     0.9129     0.9999 H            1    LIG   0.0000
  48 H            5.0344     3.0112     0.9907 H            1    LIG   0.0000
  49 H            4.0409     4.6710     1.4152 H            1    LIG   0.0000
  50 H            3.0427     6.6436     0.6924 H            1    LIG   0.0000
  51 H            1.6027     5.8889     0.5396 H            1    LIG   0.0000
  52 H            4.1143     4.7432    -2.4312 H            1    LIG   0.0000
  53 H            4.3440     4.3808    -0.8556 H            1    LIG   0.0000
  54 H            5.5419     6.2576    -0.4818 H            1    LIG   0.0000
  55 H            5.8093     6.1947    -2.0915 H            1    LIG   0.0000
  56 H            4.2993     8.0772    -0.7669 H            1    LIG   0.0000
  57 H            4.5458     7.9993    -2.3793 H            1    LIG   0.0000
  58 H            0.2344     2.0855     2.0680 H            1    LIG   0.0000
  59 H           -0.6166     3.9046     3.3605 H            1    LIG   0.0000
  60 H           -2.6545     3.6604     4.5825 H            1    LIG   0.0000
  61 H           -3.8423     1.5896     4.5206 H            1    LIG   0.0000
  62 H           -2.7010    -3.4363     0.5056 H            1    LIG   0.0000
  63 H           -3.8608    -5.5331     0.4404 H            1    LIG   0.0000
@<TRIPOS>BOND
   1        1        2 1
   2        2        3 ar
   3        3        4 ar
   4        4        5 ar
   5        5        6 1
   6        6        7 am
   7        7        8 2
   8        7        9 1
   9        9       10 2
  10       10       11 1
  11       11       12 1
  12       12       13 ar
  13       13       14 ar
  14       14       15 ar
  15       15       16 ar
  16       16       17 ar
  17       17       12 ar
  18       17       18 1
  19       18       19 2
  20       18       20 am
  21       20       21 1
  22       21       22 1
  23       22       23 1
  24       23       24 1
  25       24       25 1
  26       25       26 1
  27       26       22 1
  28        9       27 1
  29       27       28 ar
  30       28       29 ar
  31       29       30 ar
  32       30       31 ar
  33       31       32 ar
  34       32       27 ar
  35       32       33 1
  36       33        6 am
  37       33       34 2
  38        5       35 ar
  39       35       36 ar
  40       36        2 ar
  41       22       37 1
  42        1       38 1
  43        1       39 1
  44        1       40 1
  45        3       41 1
  46        4       42 1
  47       10       43 1
  48       11       44 1
  49       13       45 1
  50       14       46 1
  51       15       47 1
  52       16       48 1
  53       20       49 1
  54       21       50 1
  55       21       51 1
  56       23       52 1
  57       23       53 1
  58       24       54 1
  59       24       55 1
  60       25       56 1
  61       25       57 1
  62       28       58 1
  63       29       59 1
  64       30       60 1
  65       31       61 1
  66       35       62 1
  67       36       63 1

@<TRIPOS>MOLECULE

  63   67
SMALL
USER_CHARGES
@<TRIPOS>ATOM
   1 C1          -5.4263    -6.6827     2.2923 C.3          1    LIG   0.0000
   2 C2          -4.6919    -5.3525     2.3362 C.ar         1    LIG   0.0000
   3 C3          -3.5020    -5.2048     1.6302 C.ar         1    LIG   0.0000
   4 C4          -2.8349    -3.9853     1.6741 C.ar         1    LIG   0.0000
   5 C5          -3.3583    -2.9323     2.4180 C.ar         1    LIG   0.0000
   6 N6          -2.6822    -1.7069     2.4594 N.am         1    LIG   0.0000
   7 C7          -1.4910    -1.5771     1.7399 C.2          1    LIG   0.0000
   8 O8          -1.0343    -2.5083     1.0950 O.2          1    LIG   0.0000
   9 C9          -0.7782    -0.3172     1.7444 C.2          1    LIG   0.0000
  10 C10          0.3150    -0.1864     1.0057 C.2          1    LIG   0.0000
  11 N11          1.0000     1.0000     1.0000 N.pl3        1    LIG   0.0000
  12 C12          2.4005     1.0000     1.0000 C.ar         1    LIG   0.0000
  13 C13          3.0684    -0.2205     1.0073 C.ar         1    LIG   0.0000
  14 C14          4.4592    -0.2523     1.0066 C.ar         1    LIG   0.0000
  15 C15          5.1824     0.9360     1.0003 C.ar         1    LIG   0.0000
  16 C16          4.5145     2.1570     0.9946 C.ar         1    LIG   0.0000
  17 C17          3.1238     2.1892     0.9942 C.ar         1    LIG   0.0000
  18 C18          2.4280     3.4615     0.9880 C.2          1    LIG   0.0000
  19 O19          1.3504     3.5587     1.5071 O.2          1    LIG   0.0000
  20 N20          3.0009     4.5526     0.3895 N.am         1    LIG   0.0000
  21 C21          2.2956     5.8423     0.3832 C.3          1    LIG   0.0000
  22 C22          2.4823     6.5278     1.7250 C.3          1    LIG   0.0000
  23 C23          3.8918     7.0596     1.8833 C.3          1    LIG   0.0000
  24 C24          4.6901     5.8539     2.3308 C.3          1    LIG   0.0000
  25 C25          3.6443     4.9412     2.9435 C.3          1    LIG   0.0000
  26 O26          2.4072     5.6132     2.8014 O.3          1    LIG   0.0000
  27 C27         -1.3126     0.7760     2.5450 C.ar         1    LIG   0.0000
  28 C28         -0.6178     1.9811     2.5808 C.ar         1    LIG   0.0000
  29 C29         -1.1139     3.0375     3.3319 C.ar         1    LIG   0.0000
  30 C30         -2.2991     2.8958     4.0448 C.ar         1    LIG   0.0000
  31 C31         -2.9890     1.6900     4.0090 C.ar         1    LIG   0.0000
  32 C32         -2.4985     0.6222     3.2651 C.ar         1    LIG   0.0000
  33 C33         -3.2065    -0.6433     3.2081 C.2          1    LIG   0.0000
  34 O34         -4.2605    -0.8239     3.8007 O.2          1    LIG   0.0000
  35 C35         -4.5483    -3.0799     3.1229 C.ar         1    LIG   0.0000
  36 C36         -5.2158    -4.2994     3.0785 C.ar         1    LIG   0.0000
  37 H            1.8140     7.2627     1.8405 H            1    LIG   0.0000
  38 H           -6.2561    -6.6238     2.8473 H            1    LIG   0.0000
  39 H           -5.6720    -6.8967     1.3469 H            1    LIG   0.0000
  40 H           -4.8338    -7.4026     2.6539 H            1    LIG   0.0000
  41 H           -3.1311    -5.9659     1.0981 H            1    LIG   0.0000
  42 H           -1.9791    -3.8652     1.1710 H            1    LIG   0.0000
  43 H            0.6395    -0.9538     0.4528 H            1    LIG   0.0000
  44 H            0.5000     1.8660     0.9958 H            1    LIG   0.0000
  45 H            2.5487    -1.0749     1.0130 H            1    LIG   0.0000
  46 H            4.9392    -1.1296     1.0105 H            1    LIG   0.0000
  47 H            6.1821     0.9129     0.9999 H            1    LIG   0.0000
  48 H            5.0344     3.0112     0.9907 H            1    LIG   0.0000
  49 H            3.8988     4.4716    -0.0431 H            1    LIG   0.0000
  50 H            1.3210     5.6885     0.2202 H            1    LIG   0.0000
  51 H            2.6674     6.4220    -0.3419 H            1    LIG   0.0000
  52 H            3.9235     7.7828     2.5732 H            1    LIG   0.0000
  53 H            4.2382     7.4126     1.0142 H            1    LIG   0.0000
  54 H            5.1372     5.4128     1.5526 H            1    LIG   0.0000
  55 H            5.3788     6.1130     3.0080 H            1    LIG   0.0000
  56 H            3.6214     4.0658     2.4606 H            1    LIG   0.0000
  57 H            3.8447     4.7834     3.9104 H            1    LIG   0.0000
  58 H            0.2344     2.0855     2.0680 H            1    LIG   0.0000
  59 H           -0.6166     3.9046     3.3605 H            1    LIG   0.0000
  60 H           -2.6545     3.6604     4.5825 H            1    LIG   0.0000
  61 H           -3.8423     1.5896     4.5206 H            1    LIG   0.0000
  62 H           -4.9193    -2.3188     3.6549 H            1    LIG   0.0000
  63 H           -6.0724    -4.4190     3.5803 H            1    LIG   0.0000
@<TRIPOS>BOND
   1        1        2 1
   2        2        3 ar
   3        3        4 ar
   4        4        5 ar
   5        5        6 1
   6        6        7 am
   7        7        8 2
   8        7        9 1
   9        9       10 2
  10       10       11 1
  11       11       12 1
  12       12       13 ar
  13       13       14 ar
  14       14       15 ar
  15       15       16 ar
  16       16       17 ar
  17       17       12 ar
  18       17       18 1
  19       18       19 2
  20       18       20 am
  21       20       21 1
  22       21       22 1
  23       22       23 1
  24       23       24 1
  25       24       25 1
  26       25       26 1
  27       26       22 1
  28        9       27 1
  29       27       28 ar
  30       28       29 ar
  31       29       30 ar
  32       30       31 ar
  33       31       32 ar
  34       32       27 ar
  35       32       33 1
  36       33        6 am
  37       33       34 2
  38        5       35 ar
  39       35       36 ar
  40       36        2 ar
  41       22       37 1
  42        1       38 1
  43        1       39 1
  44        1       40 1
  45        3       41 1
  46        4       42 1
  47       10       43 1
  48       11       44 1
  49       13       45 1
  50       14       46 1
  51       15       47 1
  52       16       48 1
  53       20       49 1
  54       21       50 1
  55       21       51 1
  56       23       52 1
  57       23       53 1
  58       24       54 1
  59       24       55 1
  60       25       56 1
  61       25       57 1
  62       28       58 1
  63       29       59 1
  64       30       60 1
  65       31       61 1
  66       35       62 1
  67       36       63 1

@<TRIPOS>MOLECULE

  63   67
SMALL
USER_CHARGES
@<TRIPOS>ATOM
   1 C1          -5.4274    -6.6821     2.2928 C.3          1    LIG   0.0000
   2 C2          -4.6924    -5.3522     2.3374 C.ar         1    LIG   0.0000
   3 C3          -3.3331    -5.3319     2.6339 C.ar         1    LIG   0.0000
   4 C4          -2.6662    -4.1122     2.6729 C.ar         1    LIG   0.0000
   5 C5          -3.3583    -2.9323     2.4180 C.ar         1    LIG   0.0000
   6 N6          -2.6822    -1.7069     2.4594 N.am         1    LIG   0.0000
   7 C7          -1.4910    -1.5771     1.7399 C.2          1    LIG   0.0000
   8 O8          -1.0343    -2.5083     1.0950 O.2          1    LIG   0.0000
   9 C9          -0.7782    -0.3172     1.7444 C.2          1    LIG   0.0000
  10 C10          0.3150    -0.1864     1.0057 C.2          1    LIG   0.0000
  11 N11          1.0000     1.0000     1.0000 N.pl3        1    LIG   0.0000
  12 C12          2.4005     1.0000     1.0000 C.ar         1    LIG   0.0000
  13 C13          3.0684    -0.2205     1.0073 C.ar         1    LIG   0.0000
  14 C14          4.4592    -0.2523     1.0066 C.ar         1    LIG   0.0000
  15 C15          5.1824     0.9360     1.0003 C.ar         1    LIG   0.0000
  16 C16          4.5145     2.1570     0.9946 C.ar         1    LIG   0.0000
  17 C17          3.1238     2.1892     0.9942 C.ar         1    LIG   0.0000
  18 C18          2.4280     3.4615     0.9880 C.2          1    LIG   0.0000
  19 O19          1.3504     3.5587     1.5071 O.2          1    LIG   0.0000
  20 N20          3.0009     4.5526     0.3895 N.am         1    LIG   0.0000
  21 C21          2.2956     5.8423     0.3832 C.3          1    LIG   0.0000
  22 C22          2.8600     6.7332     1.4754 C.3          1    LIG   0.0000
  23 C23          2.6975     8.1997     1.1324 C.3          1    LIG   0.0000
  24 C24          3.8671     8.4937     0.2177 C.3          1    LIG   0.0000
  25 C25          4.8772     7.4189     0.5736 C.3          1    LIG   0.0000
  26 O26          4.2670     6.6242     1.5728 O.3          1    LIG   0.0000
  27 C27         -1.3126     0.7760     2.5450 C.ar         1    LIG   0.0000
  28 C28         -0.6178     1.9811     2.5808 C.ar         1    LIG   0.0000
  29 C29         -1.1139     3.0375     3.3319 C.ar         1    LIG   0.0000
  30 C30         -2.2991     2.8958     4.0448 C.ar         1    LIG   0.0000
  31 C31         -2.9890     1.6900     4.0090 C.ar         1    LIG   0.0000
  32 C32         -2.4985     0.6222     3.2651 C.ar         1    LIG   0.0000
  33 C33         -3.2065    -0.6433     3.2081 C.2          1    LIG   0.0000
  34 O34         -4.2605    -0.8239     3.8007 O.2          1    LIG   0.0000
  35 C35         -4.7170    -2.9530     2.1206 C.ar         1    LIG   0.0000
  36 C36         -5.3838    -4.1730     2.0810 C.ar         1    LIG   0.0000
  37 H            2.4296     6.5277     2.3544 H            1    LIG   0.0000
  38 H           -6.3889    -6.5241     2.0679 H            1    LIG   0.0000
  39 H           -5.0140    -7.2682     1.5960 H            1    LIG   0.0000
  40 H           -5.3628    -7.1287     3.1852 H            1    LIG   0.0000
  41 H           -2.8419    -6.1836     2.8167 H            1    LIG   0.0000
  42 H           -1.6892    -4.0831     2.8842 H            1    LIG   0.0000
  43 H            0.6395    -0.9538     0.4528 H            1    LIG   0.0000
  44 H            0.5000     1.8660     0.9958 H            1    LIG   0.0000
  45 H            2.5487    -1.0749     1.0130 H            1    LIG   0.0000
  46 H            4.9392    -1.1296     1.0105 H            1    LIG   0.0000
  47 H            6.1821     0.9129     0.9999 H            1    LIG   0.0000
  48 H            5.0344     3.0112     0.9907 H            1    LIG   0.0000
  49 H            3.8988     4.4716    -0.0431 H            1    LIG   0.0000
  50 H            1.3210     5.6901     0.5476 H            1    LIG   0.0000
  51 H            2.4186     6.2852    -0.5049 H            1    LIG   0.0000
  52 H            2.7402     8.7643     1.9567 H            1    LIG   0.0000
  53 H            1.8296     8.3608     0.6626 H            1    LIG   0.0000
  54 H            3.5957     8.4249    -0.7423 H            1    LIG   0.0000
  55 H            4.2384     9.4053     0.3946 H            1    LIG   0.0000
  56 H            5.0905     6.8631    -0.2299 H            1    LIG   0.0000
  57 H            5.7167     7.8337     0.9245 H            1    LIG   0.0000
  58 H            0.2344     2.0855     2.0680 H            1    LIG   0.0000
  59 H           -0.6166     3.9046     3.3605 H            1    LIG   0.0000
  60 H           -2.6545     3.6604     4.5825 H            1    LIG   0.0000
  61 H           -3.8423     1.5896     4.5206 H            1    LIG   0.0000
  62 H           -5.2082    -2.1014     1.9377 H            1    LIG   0.0000
  63 H           -6.3604    -4.2022     1.8682 H            1    LIG   0.0000
@<TRIPOS>BOND
   1        1        2 1
   2        2        3 ar
   3        3        4 ar
   4        4        5 ar
   5        5        6 1
   6        6        7 am
   7        7        8 2
   8        7        9 1
   9        9       10 2
  10       10       11 1
  11       11       12 1
  12       12       13 ar
  13       13       14 ar
  14       14       15 ar
  15       15       16 ar
  16       16       17 ar
  17       17       12 ar
  18       17       18 1
  19       18       19 2
  20       18       20 am
  21       20       21 1
  22       21       22 1
  23       22       23 1
  24       23       24 1
  25       24       25 1
  26       25       26 1
  27       26       22 1
  28        9       27 1
  29       27       28 ar
  30       28       29 ar
  31       29       30 ar
  32       30       31 ar
  33       31       32 ar
  34       32       27 ar
  35       32       33 1
  36       33        6 am
  37       33       34 2
  38        5       35 ar
  39       35       36 ar
  40       36        2 ar
  41       22       37 1
  42        1       38 1
  43        1       39 1
  44        1       40 1
  45        3       41 1
  46        4       42 1
  47       10       43 1
  48       11       44 1
  49       13       45 1
  50       14       46 1
  51       15       47 1
  52       16       48 1
  53       20       49 1
  54       21       50 1
  55       21       51 1
  56       23       52 1
  57       23       53 1
  58       24       54 1
  59       24       55 1
  60       25       56 1
  61       25       57 1
  62       28       58 1
  63       29       59 1
  64       30       60 1
  65       31       61 1
  66       35       62 1
  67       36       63 1

@<TRIPOS>MOLECULE

  63   67
SMALL
USER_CHARGES
@<TRIPOS>ATOM
   1 C1          -5.4261    -6.6828     2.2921 C.3          1    LIG   0.0000
   2 C2          -4.6919    -5.3524     2.3359 C.ar         1    LIG   0.0000
   3 C3          -3.6231    -5.1326     1.4726 C.ar         1    LIG   0.0000
   4 C4          -2.9556    -3.9134     1.5172 C.ar         1    LIG   0.0000
   5 C5          -3.3583    -2.9323     2.4180 C.ar         1    LIG   0.0000
   6 N6          -2.6822    -1.7069     2.4594 N.am         1    LIG   0.0000
   7 C7          -1.4910    -1.5771     1.7399 C.2          1    LIG   0.0000
   8 O8          -1.0343    -2.5083     1.0950 O.2          1    LIG   0.0000
   9 C9          -0.7782    -0.3172     1.7444 C.2          1    LIG   0.0000
  10 C10          0.3150    -0.1864     1.0057 C.2          1    LIG   0.0000
  11 N11          1.0000     1.0000     1.0000 N.pl3        1    LIG   0.0000
  12 C12          2.4005     1.0000     1.0000 C.ar         1    LIG   0.0000
  13 C13          3.0684    -0.2205     1.0073 C.ar         1    LIG   0.0000
  14 C14          4.4592    -0.2523     1.0066 C.ar         1    LIG   0.0000
  15 C15          5.1824     0.9360     1.0003 C.ar         1    LIG   0.0000
  16 C16          4.5145     2.1570     0.9946 C.ar         1    LIG   0.0000
  17 C17          3.1238     2.1892     0.9942 C.ar         1    LIG   0.0000
  18 C18          2.4280     3.4615     0.9880 C.2          1    LIG   0.0000
  19 O19          1.3504     3.5587     1.5071 O.2          1    LIG   0.0000
  20 N20          3.0009     4.5526     0.3895 N.am         1    LIG   0.0000
  21 C21          2.2956     5.8423     0.3832 C.3          1    LIG   0.0000
  22 C22          2.0527     6.2934     1.8127 C.3          1    LIG   0.0000
  23 C23          1.7830     5.1228     2.7363 C.3          1    LIG   0.0000
  24 C24          0.2712     5.0025     2.7755 C.3          1    LIG   0.0000
  25 C25         -0.2142     6.1794     1.9520 C.3          1    LIG   0.0000
  26 O26          0.8798     7.0766     1.9459 O.3          1    LIG   0.0000
  27 C27         -1.3126     0.7760     2.5450 C.ar         1    LIG   0.0000
  28 C28         -0.6178     1.9811     2.5808 C.ar         1    LIG   0.0000
  29 C29         -1.1139     3.0375     3.3319 C.ar         1    LIG   0.0000
  30 C30         -2.2991     2.8958     4.0448 C.ar         1    LIG   0.0000
  31 C31         -2.9890     1.6900     4.0090 C.ar         1    LIG   0.0000
  32 C32         -2.4985     0.6222     3.2651 C.ar         1    LIG   0.0000
  33 C33         -3.2065    -0.6433     3.2081 C.2          1    LIG   0.0000
  34 O34         -4.2605    -0.8239     3.8007 O.2          1    LIG   0.0000
  35 C35         -4.4274    -3.1520     3.2803 C.ar         1    LIG   0.0000
  36 C36         -5.0954    -4.3711     3.2352 C.ar         1    LIG   0.0000
  37 H            2.8429     6.8095     2.1430 H            1    LIG   0.0000
  38 H           -6.1617    -6.6800     2.9695 H            1    LIG   0.0000
  39 H           -5.8132    -6.8200     1.3803 H            1    LIG   0.0000
  40 H           -4.7865    -7.4234     2.4977 H            1    LIG   0.0000
  41 H           -3.3386    -5.8424     0.8281 H            1    LIG   0.0000
  42 H           -2.1861    -3.7419     0.9020 H            1    LIG   0.0000
  43 H            0.6395    -0.9538     0.4528 H            1    LIG   0.0000
  44 H            0.5000     1.8660     0.9958 H            1    LIG   0.0000
  45 H            2.5487    -1.0749     1.0130 H            1    LIG   0.0000
  46 H            4.9392    -1.1296     1.0105 H            1    LIG   0.0000
  47 H            6.1821     0.9129     0.9999 H            1    LIG   0.0000
  48 H            5.0344     3.0112     0.9907 H            1    LIG   0.0000
  49 H            3.8988     4.4716    -0.0431 H            1    LIG   0.0000
  50 H            1.4193     5.7408    -0.0878 H            1    LIG   0.0000
  51 H            2.8521     6.5242    -0.0915 H            1    LIG   0.0000
  52 H            2.1460     5.3040     3.6503 H            1    LIG   0.0000
  53 H            2.1940     4.2861     2.3743 H            1    LIG   0.0000
  54 H           -0.0269     4.1384     2.3699 H            1    LIG   0.0000
  55 H           -0.0657     5.0635     3.7150 H            1    LIG   0.0000
  56 H           -0.4411     5.8912     1.0217 H            1    LIG   0.0000
  57 H           -1.0160     6.6012     2.3752 H            1    LIG   0.0000
  58 H            0.2344     2.0855     2.0680 H            1    LIG   0.0000
  59 H           -0.6166     3.9046     3.3605 H            1    LIG   0.0000
  60 H           -2.6545     3.6604     4.5825 H            1    LIG   0.0000
  61 H           -3.8423     1.5896     4.5206 H            1    LIG   0.0000
  62 H           -4.7121    -2.4423     3.9247 H            1    LIG   0.0000
  63 H           -5.8658    -4.5421     3.8493 H            1    LIG   0.0000
@<TRIPOS>BOND
   1        1        2 1
   2        2        3 ar
   3        3        4 ar
   4        4        5 ar
   5        5        6 1
   6        6        7 am
   7        7        8 2
   8        7        9 1
   9        9       10 2
  10       10       11 1
  11       11       12 1
  12       12       13 ar
  13       13       14 ar
  14       14       15 ar
  15       15       16 ar
  16       16       17 ar
  17       17       12 ar
  18       17       18 1
  19       18       19 2
  20       18       20 am
  21       20       21 1
  22       21       22 1
  23       22       23 1
  24       23       24 1
  25       24       25 1
  26       25       26 1
  27       26       22 1
  28        9       27 1
  29       27       28 ar
  30       28       29 ar
  31       29       30 ar
  32       30       31 ar
  33       31       32 ar
  34       32       27 ar
  35       32       33 1
  36       33        6 am
  37       33       34 2
  38        5       35 ar
  39       35       36 ar
  40       36        2 ar
  41       22       37 1
  42        1       38 1
  43        1       39 1
  44        1       40 1
  45        3       41 1
  46        4       42 1
  47       10       43 1
  48       11       44 1
  49       13       45 1
  50       14       46 1
  51       15       47 1
  52       16       48 1
  53       20       49 1
  54       21       50 1
  55       21       51 1
  56       23       52 1
  57       23       53 1
  58       24       54 1
  59       24       55 1
  60       25       56 1
  61       25       57 1
  62       28       58 1
  63       29       59 1
  64       30       60 1
  65       31       61 1
  66       35       62 1
  67       36       63 1

