@<TRIPOS>MOLECULE
*****
 63 67 0 0 0
SMALL
USER_CHARGES

@<TRIPOS>ATOM
      1 C1         -5.4263   -6.6827    2.2923 C.3     1  LIG1        0.0000
      2 C2         -4.6919   -5.3525    2.3362 C.3     1  LIG1        0.0000
      3 C3         -3.5020   -5.2048    1.6302 C.3     1  LIG1        0.0000
      4 C4         -2.8349   -3.9853    1.6741 C.3     1  LIG1        0.0000
      5 C5         -3.3583   -2.9323    2.4180 C.3     1  LIG1        0.0000
      6 N6         -2.6822   -1.7069    2.4594 N.am    1  LIG1        0.0000
      7 C7         -1.4910   -1.5771    1.7399 C.2     1  LIG1        0.0000
      8 O8         -1.0343   -2.5083    1.0950 O.2     1  LIG1        0.0000
      9 C9         -0.7782   -0.3172    1.7444 C.2     1  LIG1        0.0000
     10 C10         0.3150   -0.1864    1.0057 C.2     1  LIG1        0.0000
     11 N11         1.0000    1.0000    1.0000 N.pl3   1  LIG1        0.0000
     12 C12         2.4005    1.0000    1.0000 C.3     1  LIG1        0.0000
     13 C13         3.0684   -0.2205    1.0073 C.3     1  LIG1        0.0000
     14 C14         4.4592   -0.2523    1.0066 C.3     1  LIG1        0.0000
     15 C15         5.1824    0.9360    1.0003 C.3     1  LIG1        0.0000
     16 C16         4.5145    2.1570    0.9946 C.3     1  LIG1        0.0000
     17 C17         3.1238    2.1892    0.9942 C.3     1  LIG1        0.0000
     18 C18         2.4280    3.4615    0.9880 C.2     1  LIG1        0.0000
     19 O19         1.2283    3.4893    0.9878 O.2     1  LIG1        0.0000
     20 N20         3.1403    4.6318    0.9823 N.am    1  LIG1        0.0000
     21 C21         2.4350    5.9215    0.9760 C.3     1  LIG1        0.0000
     22 C22         1.9742    6.2394   -0.4352 C.3     1  LIG1        0.0000
     23 C23         3.1489    6.5022   -1.3549 C.3     1  LIG1        0.0000
     24 C24         3.5046    7.9495   -1.0905 C.3     1  LIG1        0.0000
     25 C25         2.2191    8.5376   -0.5392 C.3     1  LIG1        0.0000
     26 O26         1.2868    7.4739   -0.5020 O.3     1  LIG1        0.0000
     27 C27        -1.3126    0.7760    2.5450 C.3     1  LIG1        0.0000
     28 C28        -0.6178    1.9811    2.5808 C.3     1  LIG1        0.0000
     29 C29        -1.1139    3.0375    3.3319 C.3     1  LIG1        0.0000
     30 C30        -2.2991    2.8958    4.0448 C.3     1  LIG1        0.0000
     31 C31        -2.9890    1.6900    4.0090 C.3     1  LIG1        0.0000
     32 C32        -2.4985    0.6222    3.2651 C.3     1  LIG1        0.0000
     33 C33        -3.2065   -0.6433    3.2081 C.2     1  LIG1        0.0000
     34 O34        -4.2605   -0.8239    3.8007 O.2     1  LIG1        0.0000
     35 C35        -4.5483   -3.0799    3.1229 C.3     1  LIG1        0.0000
     36 C36        -5.2158   -4.2994    3.0785 C.3     1  LIG1        0.0000
     37 H           1.4048    5.4999   -0.7944 H       1  LIG1        0.0000
     38 H          -6.2561   -6.6238    2.8473 H       1  LIG1        0.0000
     39 H          -5.6720   -6.8967    1.3469 H       1  LIG1        0.0000
     40 H          -4.8338   -7.4026    2.6539 H       1  LIG1        0.0000
     41 H          -3.1311   -5.9659    1.0981 H       1  LIG1        0.0000
     42 H          -1.9791   -3.8652    1.1710 H       1  LIG1        0.0000
     43 H           0.6395   -0.9538    0.4528 H       1  LIG1        0.0000
     44 H           0.5000    1.8660    0.9958 H       1  LIG1        0.0000
     45 H           2.5487   -1.0749    1.0130 H       1  LIG1        0.0000
     46 H           4.9392   -1.1296    1.0105 H       1  LIG1        0.0000
     47 H           6.1821    0.9129    0.9999 H       1  LIG1        0.0000
     48 H           5.0344    3.0112    0.9907 H       1  LIG1        0.0000
     49 H           4.1400    4.6086    0.9825 H       1  LIG1        0.0000
     50 H           3.0524    6.6406    1.2950 H       1  LIG1        0.0000
     51 H           1.6414    5.8704    1.5823 H       1  LIG1        0.0000
     52 H           2.8883    6.3692   -2.3112 H       1  LIG1        0.0000
     53 H           3.9163    5.9011   -1.1318 H       1  LIG1        0.0000
     54 H           4.2447    8.0188   -0.4215 H       1  LIG1        0.0000
     55 H           3.7748    8.4109   -1.9355 H       1  LIG1        0.0000
     56 H           2.3695    8.8999    0.3807 H       1  LIG1        0.0000
     57 H           1.8881    9.2689   -1.1355 H       1  LIG1        0.0000
     58 H           0.2344    2.0855    2.0680 H       1  LIG1        0.0000
     59 H          -0.6166    3.9046    3.3605 H       1  LIG1        0.0000
     60 H          -2.6545    3.6604    4.5825 H       1  LIG1        0.0000
     61 H          -3.8423    1.5896    4.5206 H       1  LIG1        0.0000
     62 H          -4.9193   -2.3188    3.6549 H       1  LIG1        0.0000
     63 H          -6.0724   -4.4190    3.5803 H       1  LIG1        0.0000
@<TRIPOS>BOND
     1     1     2    1
     2     2     3   ar
     3     3     4   ar
     4     4     5   ar
     5     5     6    1
     6     6     7   am
     7     7     8    2
     8     7     9    1
     9     9    10    2
    10    10    11    1
    11    11    12    1
    12    12    13   ar
    13    13    14   ar
    14    14    15   ar
    15    15    16   ar
    16    16    17   ar
    17    17    12   ar
    18    17    18    1
    19    18    19    2
    20    18    20   am
    21    20    21    1
    22    21    22    1
    23    22    23    1
    24    23    24    1
    25    24    25    1
    26    25    26    1
    27    26    22    1
    28     9    27    1
    29    27    28   ar
    30    28    29   ar
    31    29    30   ar
    32    30    31   ar
    33    31    32   ar
    34    32    27   ar
    35    32    33    1
    36    33     6   am
    37    33    34    2
    38     5    35   ar
    39    35    36   ar
    40    36     2   ar
    41    22    37    1
    42     1    38    1
    43     1    39    1
    44     1    40    1
    45     3    41    1
    46     4    42    1
    47    10    43    1
    48    11    44    1
    49    13    45    1
    50    14    46    1
    51    15    47    1
    52    16    48    1
    53    20    49    1
    54    21    50    1
    55    21    51    1
    56    23    52    1
    57    23    53    1
    58    24    54    1
    59    24    55    1
    60    25    56    1
    61    25    57    1
    62    28    58    1
    63    29    59    1
    64    30    60    1
    65    31    61    1
    66    35    62    1
    67    36    63    1
