@<TRIPOS>MOLECULE

  47   48
SMALL
USER_CHARGES
@<TRIPOS>ATOM
   1 C1           4.8021    -2.6295    -0.5472 C.3          1    LIG   0.0000
   2 C2           3.4915    -2.0481    -0.0424 C.3          1    LIG   0.0000
   3 C3           3.2259    -2.5473     1.3684 C.3          1    LIG   0.0000
   4 O4           3.5742    -0.6305    -0.0352 O.3          1    LIG   0.0000
   5 C5           2.3915     0.0207    -0.0213 C.ar         1    LIG   0.0000
   6 C6           1.1980    -0.6941    -0.0150 C.ar         1    LIG   0.0000
   7 C7          -0.0177    -0.0175     0.0006 C.ar         1    LIG   0.0000
   8 C8          -0.0197     1.3735     0.0090 C.ar         1    LIG   0.0000
   9 S9          -1.5352     2.2275     0.0286 S.o2         1    LIG   0.0000
  10 O10         -2.5241     1.4347     0.7122 O.2          1    LIG   0.0000
  11 O11         -1.3696     3.4833     0.7134 O.2          1    LIG   0.0000
  12 N12         -2.0232     2.5034    -1.5019 N.3          1    LIG   0.0000
  13 C13         -1.0138     3.3126    -2.1998 C.3          1    LIG   0.0000
  14 C14         -2.1923     1.2213    -2.2010 C.3          1    LIG   0.0000
  15 C15          1.1673     2.0986     0.0019 C.ar         1    LIG   0.0000
  16 C16          2.3764     1.4116    -0.0136 C.ar         1    LIG   0.0000
  17 N17          3.5801     2.1272    -0.0211 N.2          1    LIG   0.0000
  18 C18          4.1907     2.4787     1.0114 C.2          1    LIG   0.0000
  19 C19          3.6567     2.1467     2.3182 C.ar         1    LIG   0.0000
  20 C20          2.3966     2.6259     2.6606 C.ar         1    LIG   0.0000
  21 C21          1.8702     2.3167     3.9104 C.ar         1    LIG   0.0000
  22 Br22         0.0959     2.9851     4.4072 Br           1    LIG   0.0000
  23 C23          2.5865     1.5382     4.8139 C.ar         1    LIG   0.0000
  24 C24          3.8459     1.0629     4.4625 C.ar         1    LIG   0.0000
  25 C25          4.3815     1.3674     3.2146 C.ar         1    LIG   0.0000
  26 O26          5.6041     0.9062     2.8737 O.3          1    LIG   0.0000
  27 H            4.7438    -3.6278    -0.5523 H            1    LIG   0.0000
  28 H            4.9768    -2.3011    -1.4755 H            1    LIG   0.0000
  29 H            5.5477    -2.3422     0.0539 H            1    LIG   0.0000
  30 H            2.7459    -2.3354    -0.6436 H            1    LIG   0.0000
  31 H            3.1676    -3.5456     1.3634 H            1    LIG   0.0000
  32 H            3.9715    -2.2599     1.9696 H            1    LIG   0.0000
  33 H            2.3637    -2.1648     1.7006 H            1    LIG   0.0000
  34 H            1.2139    -1.6939    -0.0216 H            1    LIG   0.0000
  35 H           -0.8793    -0.5250     0.0057 H            1    LIG   0.0000
  36 H           -1.3132     3.4819    -3.1388 H            1    LIG   0.0000
  37 H           -0.8988     4.1848    -1.7242 H            1    LIG   0.0000
  38 H           -0.1426     2.8217    -2.2111 H            1    LIG   0.0000
  39 H           -2.4917     1.3906    -3.1400 H            1    LIG   0.0000
  40 H           -1.3211     0.7304    -2.2123 H            1    LIG   0.0000
  41 H           -2.8790     0.6708    -1.7263 H            1    LIG   0.0000
  42 H            1.1516     3.0985     0.0079 H            1    LIG   0.0000
  43 H            5.0476     2.9888     0.9363 H            1    LIG   0.0000
  44 H            1.8757     3.1858     2.0163 H            1    LIG   0.0000
  45 H            2.1988     1.3218     5.7099 H            1    LIG   0.0000
  46 H            4.3663     0.5023     5.1066 H            1    LIG   0.0000
  47 H            6.1248     0.3462     3.5181 H            1    LIG   0.0000
@<TRIPOS>BOND
   1        1        2 1
   2        2        3 1
   3        2        4 1
   4        4        5 1
   5        5        6 ar
   6        6        7 ar
   7        7        8 ar
   8        8        9 1
   9        9       10 2
  10        9       11 2
  11        9       12 1
  12       12       13 1
  13       12       14 1
  14        8       15 ar
  15       15       16 ar
  16       16        5 ar
  17       16       17 1
  18       17       18 2
  19       18       19 1
  20       19       20 ar
  21       20       21 ar
  22       21       22 1
  23       21       23 ar
  24       23       24 ar
  25       24       25 ar
  26       25       19 ar
  27       25       26 1
  28        1       27 1
  29        1       28 1
  30        1       29 1
  31        2       30 1
  32        3       31 1
  33        3       32 1
  34        3       33 1
  35        6       34 1
  36        7       35 1
  37       13       36 1
  38       13       37 1
  39       13       38 1
  40       14       39 1
  41       14       40 1
  42       14       41 1
  43       15       42 1
  44       18       43 1
  45       20       44 1
  46       23       45 1
  47       24       46 1
  48       26       47 1

@<TRIPOS>MOLECULE

  47   48
SMALL
USER_CHARGES
@<TRIPOS>ATOM
   1 C1           4.8021    -2.6295    -0.5472 C.3          1    LIG   0.0000
   2 C2           3.4915    -2.0481    -0.0424 C.3          1    LIG   0.0000
   3 C3           3.2259    -2.5473     1.3684 C.3          1    LIG   0.0000
   4 O4           3.5742    -0.6305    -0.0352 O.3          1    LIG   0.0000
   5 C5           2.3915     0.0207    -0.0213 C.ar         1    LIG   0.0000
   6 C6           1.1980    -0.6941    -0.0150 C.ar         1    LIG   0.0000
   7 C7          -0.0177    -0.0175     0.0006 C.ar         1    LIG   0.0000
   8 C8          -0.0197     1.3735     0.0090 C.ar         1    LIG   0.0000
   9 S9          -1.5352     2.2275     0.0286 S.o2         1    LIG   0.0000
  10 O10         -1.3826     3.4915    -0.6442 O.2          1    LIG   0.0000
  11 O11         -2.5371     1.4428    -0.6454 O.2          1    LIG   0.0000
  12 N12         -1.9938     2.4850     1.5714 N.3          1    LIG   0.0000
  13 C13         -1.6936     1.2928     2.3773 C.3          1    LIG   0.0000
  14 C14         -1.2631     3.6396     2.1136 C.3          1    LIG   0.0000
  15 C15          1.1673     2.0986     0.0019 C.ar         1    LIG   0.0000
  16 C16          2.3764     1.4116    -0.0136 C.ar         1    LIG   0.0000
  17 N17          3.5801     2.1272    -0.0211 N.2          1    LIG   0.0000
  18 C18          4.1907     2.4787     1.0114 C.2          1    LIG   0.0000
  19 C19          3.6567     2.1467     2.3182 C.ar         1    LIG   0.0000
  20 C20          2.3966     2.6259     2.6606 C.ar         1    LIG   0.0000
  21 C21          1.8702     2.3167     3.9104 C.ar         1    LIG   0.0000
  22 Br22         0.0959     2.9851     4.4072 Br           1    LIG   0.0000
  23 C23          2.5865     1.5382     4.8139 C.ar         1    LIG   0.0000
  24 C24          3.8459     1.0629     4.4625 C.ar         1    LIG   0.0000
  25 C25          4.3815     1.3674     3.2146 C.ar         1    LIG   0.0000
  26 O26          5.6041     0.9062     2.8737 O.3          1    LIG   0.0000
  27 H            4.7438    -3.6278    -0.5523 H            1    LIG   0.0000
  28 H            4.9768    -2.3011    -1.4755 H            1    LIG   0.0000
  29 H            5.5477    -2.3422     0.0539 H            1    LIG   0.0000
  30 H            2.7459    -2.3354    -0.6436 H            1    LIG   0.0000
  31 H            3.1676    -3.5456     1.3634 H            1    LIG   0.0000
  32 H            3.9715    -2.2599     1.9696 H            1    LIG   0.0000
  33 H            2.3637    -2.1648     1.7006 H            1    LIG   0.0000
  34 H            1.2139    -1.6939    -0.0216 H            1    LIG   0.0000
  35 H           -0.8793    -0.5250     0.0057 H            1    LIG   0.0000
  36 H           -1.9750     1.4508     3.3238 H            1    LIG   0.0000
  37 H           -2.1907     0.5073     2.0085 H            1    LIG   0.0000
  38 H           -0.7111     1.1093     2.3479 H            1    LIG   0.0000
  39 H           -1.5445     3.7976     3.0601 H            1    LIG   0.0000
  40 H           -0.2806     3.4561     2.0841 H            1    LIG   0.0000
  41 H           -1.4673     4.4506     1.5653 H            1    LIG   0.0000
  42 H            1.1516     3.0985     0.0079 H            1    LIG   0.0000
  43 H            5.0476     2.9888     0.9363 H            1    LIG   0.0000
  44 H            1.8757     3.1858     2.0163 H            1    LIG   0.0000
  45 H            2.1988     1.3218     5.7099 H            1    LIG   0.0000
  46 H            4.3663     0.5023     5.1066 H            1    LIG   0.0000
  47 H            6.1248     0.3462     3.5181 H            1    LIG   0.0000
@<TRIPOS>BOND
   1        1        2 1
   2        2        3 1
   3        2        4 1
   4        4        5 1
   5        5        6 ar
   6        6        7 ar
   7        7        8 ar
   8        8        9 1
   9        9       10 2
  10        9       11 2
  11        9       12 1
  12       12       13 1
  13       12       14 1
  14        8       15 ar
  15       15       16 ar
  16       16        5 ar
  17       16       17 1
  18       17       18 2
  19       18       19 1
  20       19       20 ar
  21       20       21 ar
  22       21       22 1
  23       21       23 ar
  24       23       24 ar
  25       24       25 ar
  26       25       19 ar
  27       25       26 1
  28        1       27 1
  29        1       28 1
  30        1       29 1
  31        2       30 1
  32        3       31 1
  33        3       32 1
  34        3       33 1
  35        6       34 1
  36        7       35 1
  37       13       36 1
  38       13       37 1
  39       13       38 1
  40       14       39 1
  41       14       40 1
  42       14       41 1
  43       15       42 1
  44       18       43 1
  45       20       44 1
  46       23       45 1
  47       24       46 1
  48       26       47 1

@<TRIPOS>MOLECULE

  47   48
SMALL
USER_CHARGES
@<TRIPOS>ATOM
   1 C1           4.8021    -2.6295    -0.5472 C.3          1    LIG   0.0000
   2 C2           3.4915    -2.0481    -0.0424 C.3          1    LIG   0.0000
   3 C3           3.2259    -2.5473     1.3684 C.3          1    LIG   0.0000
   4 O4           3.5742    -0.6305    -0.0352 O.3          1    LIG   0.0000
   5 C5           2.3915     0.0207    -0.0213 C.ar         1    LIG   0.0000
   6 C6           1.1980    -0.6941    -0.0150 C.ar         1    LIG   0.0000
   7 C7          -0.0177    -0.0175     0.0006 C.ar         1    LIG   0.0000
   8 C8          -0.0197     1.3735     0.0090 C.ar         1    LIG   0.0000
   9 S9          -1.5352     2.2275     0.0286 S.o2         1    LIG   0.0000
  10 O10         -2.5241     1.4347     0.7122 O.2          1    LIG   0.0000
  11 O11         -1.3696     3.4833     0.7134 O.2          1    LIG   0.0000
  12 N12         -2.0232     2.5034    -1.5019 N.3          1    LIG   0.0000
  13 C13         -1.0138     3.3126    -2.1998 C.3          1    LIG   0.0000
  14 C14         -2.1923     1.2213    -2.2010 C.3          1    LIG   0.0000
  15 C15          1.1673     2.0986     0.0019 C.ar         1    LIG   0.0000
  16 C16          2.3764     1.4116    -0.0136 C.ar         1    LIG   0.0000
  17 N17          3.5801     2.1272    -0.0211 N.2          1    LIG   0.0000
  18 C18          4.1907     2.4787     1.0114 C.2          1    LIG   0.0000
  19 C19          3.6567     2.1467     2.3182 C.ar         1    LIG   0.0000
  20 C20          3.4786     0.8054     2.6403 C.ar         1    LIG   0.0000
  21 C21          2.9671     0.4702     3.8896 C.ar         1    LIG   0.0000
  22 Br22         2.7104    -1.4158     4.3577 Br           1    LIG   0.0000
  23 C23          2.6349     1.4564     4.8129 C.ar         1    LIG   0.0000
  24 C24          2.8168     2.7954     4.4820 C.ar         1    LIG   0.0000
  25 C25          3.3274     3.1409     3.2343 C.ar         1    LIG   0.0000
  26 O26          3.5036     4.4407     2.9132 O.3          1    LIG   0.0000
  27 H            4.7438    -3.6278    -0.5523 H            1    LIG   0.0000
  28 H            4.9768    -2.3011    -1.4755 H            1    LIG   0.0000
  29 H            5.5477    -2.3422     0.0539 H            1    LIG   0.0000
  30 H            2.7459    -2.3354    -0.6436 H            1    LIG   0.0000
  31 H            3.1676    -3.5456     1.3634 H            1    LIG   0.0000
  32 H            3.9715    -2.2599     1.9696 H            1    LIG   0.0000
  33 H            2.3637    -2.1648     1.7006 H            1    LIG   0.0000
  34 H            1.2139    -1.6939    -0.0216 H            1    LIG   0.0000
  35 H           -0.8793    -0.5250     0.0057 H            1    LIG   0.0000
  36 H           -1.3132     3.4819    -3.1388 H            1    LIG   0.0000
  37 H           -0.8988     4.1848    -1.7242 H            1    LIG   0.0000
  38 H           -0.1426     2.8217    -2.2111 H            1    LIG   0.0000
  39 H           -2.4917     1.3906    -3.1400 H            1    LIG   0.0000
  40 H           -1.3211     0.7304    -2.2123 H            1    LIG   0.0000
  41 H           -2.8790     0.6708    -1.7263 H            1    LIG   0.0000
  42 H            1.1516     3.0985     0.0079 H            1    LIG   0.0000
  43 H            5.0476     2.9888     0.9363 H            1    LIG   0.0000
  44 H            3.7154     0.0909     1.9819 H            1    LIG   0.0000
  45 H            2.2677     1.2046     5.7083 H            1    LIG   0.0000
  46 H            2.5808     3.5097     5.1408 H            1    LIG   0.0000
  47 H            3.2669     5.1550     3.5718 H            1    LIG   0.0000
@<TRIPOS>BOND
   1        1        2 1
   2        2        3 1
   3        2        4 1
   4        4        5 1
   5        5        6 ar
   6        6        7 ar
   7        7        8 ar
   8        8        9 1
   9        9       10 2
  10        9       11 2
  11        9       12 1
  12       12       13 1
  13       12       14 1
  14        8       15 ar
  15       15       16 ar
  16       16        5 ar
  17       16       17 1
  18       17       18 2
  19       18       19 1
  20       19       20 ar
  21       20       21 ar
  22       21       22 1
  23       21       23 ar
  24       23       24 ar
  25       24       25 ar
  26       25       19 ar
  27       25       26 1
  28        1       27 1
  29        1       28 1
  30        1       29 1
  31        2       30 1
  32        3       31 1
  33        3       32 1
  34        3       33 1
  35        6       34 1
  36        7       35 1
  37       13       36 1
  38       13       37 1
  39       13       38 1
  40       14       39 1
  41       14       40 1
  42       14       41 1
  43       15       42 1
  44       18       43 1
  45       20       44 1
  46       23       45 1
  47       24       46 1
  48       26       47 1

@<TRIPOS>MOLECULE

  47   48
SMALL
USER_CHARGES
@<TRIPOS>ATOM
   1 C1           4.8021    -2.6295    -0.5472 C.3          1    LIG   0.0000
   2 C2           3.4915    -2.0481    -0.0424 C.3          1    LIG   0.0000
   3 C3           3.2259    -2.5473     1.3684 C.3          1    LIG   0.0000
   4 O4           3.5742    -0.6305    -0.0352 O.3          1    LIG   0.0000
   5 C5           2.3915     0.0207    -0.0213 C.ar         1    LIG   0.0000
   6 C6           1.1980    -0.6941    -0.0150 C.ar         1    LIG   0.0000
   7 C7          -0.0177    -0.0175     0.0006 C.ar         1    LIG   0.0000
   8 C8          -0.0197     1.3735     0.0090 C.ar         1    LIG   0.0000
   9 S9          -1.5352     2.2275     0.0286 S.o2         1    LIG   0.0000
  10 O10         -1.3826     3.4915    -0.6442 O.2          1    LIG   0.0000
  11 O11         -2.5371     1.4428    -0.6454 O.2          1    LIG   0.0000
  12 N12         -1.9938     2.4850     1.5714 N.3          1    LIG   0.0000
  13 C13         -2.1495     1.1946     2.2582 C.3          1    LIG   0.0000
  14 C14         -0.9710     3.2860     2.2594 C.3          1    LIG   0.0000
  15 C15          1.1673     2.0986     0.0019 C.ar         1    LIG   0.0000
  16 C16          2.3764     1.4116    -0.0136 C.ar         1    LIG   0.0000
  17 N17          3.5801     2.1272    -0.0211 N.2          1    LIG   0.0000
  18 C18          4.1907     2.4787     1.0114 C.2          1    LIG   0.0000
  19 C19          3.6567     2.1467     2.3182 C.ar         1    LIG   0.0000
  20 C20          3.4786     0.8054     2.6403 C.ar         1    LIG   0.0000
  21 C21          2.9671     0.4702     3.8896 C.ar         1    LIG   0.0000
  22 Br22         2.7104    -1.4158     4.3577 Br           1    LIG   0.0000
  23 C23          2.6349     1.4564     4.8129 C.ar         1    LIG   0.0000
  24 C24          2.8168     2.7954     4.4820 C.ar         1    LIG   0.0000
  25 C25          3.3274     3.1409     3.2343 C.ar         1    LIG   0.0000
  26 O26          3.5036     4.4407     2.9132 O.3          1    LIG   0.0000
  27 H            4.7438    -3.6278    -0.5523 H            1    LIG   0.0000
  28 H            4.9768    -2.3011    -1.4755 H            1    LIG   0.0000
  29 H            5.5477    -2.3422     0.0539 H            1    LIG   0.0000
  30 H            2.7459    -2.3354    -0.6436 H            1    LIG   0.0000
  31 H            3.1676    -3.5456     1.3634 H            1    LIG   0.0000
  32 H            3.9715    -2.2599     1.9696 H            1    LIG   0.0000
  33 H            2.3637    -2.1648     1.7006 H            1    LIG   0.0000
  34 H            1.2139    -1.6939    -0.0216 H            1    LIG   0.0000
  35 H           -0.8793    -0.5250     0.0057 H            1    LIG   0.0000
  36 H           -2.4309     1.3526     3.2047 H            1    LIG   0.0000
  37 H           -2.8453     0.6498     1.7902 H            1    LIG   0.0000
  38 H           -1.2784     0.7037     2.2469 H            1    LIG   0.0000
  39 H           -1.2524     3.4439     3.2059 H            1    LIG   0.0000
  40 H           -0.0999     2.7951     2.2481 H            1    LIG   0.0000
  41 H           -0.8651     4.1637     1.7922 H            1    LIG   0.0000
  42 H            1.1516     3.0985     0.0079 H            1    LIG   0.0000
  43 H            5.0476     2.9888     0.9363 H            1    LIG   0.0000
  44 H            3.7154     0.0909     1.9819 H            1    LIG   0.0000
  45 H            2.2677     1.2046     5.7083 H            1    LIG   0.0000
  46 H            2.5808     3.5097     5.1408 H            1    LIG   0.0000
  47 H            3.2669     5.1550     3.5718 H            1    LIG   0.0000
@<TRIPOS>BOND
   1        1        2 1
   2        2        3 1
   3        2        4 1
   4        4        5 1
   5        5        6 ar
   6        6        7 ar
   7        7        8 ar
   8        8        9 1
   9        9       10 2
  10        9       11 2
  11        9       12 1
  12       12       13 1
  13       12       14 1
  14        8       15 ar
  15       15       16 ar
  16       16        5 ar
  17       16       17 1
  18       17       18 2
  19       18       19 1
  20       19       20 ar
  21       20       21 ar
  22       21       22 1
  23       21       23 ar
  24       23       24 ar
  25       24       25 ar
  26       25       19 ar
  27       25       26 1
  28        1       27 1
  29        1       28 1
  30        1       29 1
  31        2       30 1
  32        3       31 1
  33        3       32 1
  34        3       33 1
  35        6       34 1
  36        7       35 1
  37       13       36 1
  38       13       37 1
  39       13       38 1
  40       14       39 1
  41       14       40 1
  42       14       41 1
  43       15       42 1
  44       18       43 1
  45       20       44 1
  46       23       45 1
  47       24       46 1
  48       26       47 1

@<TRIPOS>MOLECULE

  47   48
SMALL
USER_CHARGES
@<TRIPOS>ATOM
   1 C1           3.2013    -2.5315    -1.4540 C.3          1    LIG   0.0000
   2 C2           3.4915    -2.0481    -0.0424 C.3          1    LIG   0.0000
   3 C3           4.8106    -2.6350     0.4330 C.3          1    LIG   0.0000
   4 O4           3.5742    -0.6305    -0.0352 O.3          1    LIG   0.0000
   5 C5           2.3915     0.0207    -0.0213 C.ar         1    LIG   0.0000
   6 C6           1.1980    -0.6941    -0.0150 C.ar         1    LIG   0.0000
   7 C7          -0.0177    -0.0175     0.0006 C.ar         1    LIG   0.0000
   8 C8          -0.0197     1.3735     0.0090 C.ar         1    LIG   0.0000
   9 S9          -1.5352     2.2275     0.0286 S.o2         1    LIG   0.0000
  10 O10         -2.0563     2.2497     1.3708 O.2          1    LIG   0.0000
  11 O11         -1.3315     3.5773    -0.4296 O.2          1    LIG   0.0000
  12 N12         -2.5959     1.4745    -0.9536 N.3          1    LIG   0.0000
  13 C13         -1.9035     1.0249    -2.1699 C.3          1    LIG   0.0000
  14 C14         -3.1685     0.3129    -0.2580 C.3          1    LIG   0.0000
  15 C15          1.1673     2.0986     0.0019 C.ar         1    LIG   0.0000
  16 C16          2.3764     1.4116    -0.0136 C.ar         1    LIG   0.0000
  17 N17          3.5801     2.1272    -0.0211 N.2          1    LIG   0.0000
  18 C18          4.1907     2.4787     1.0114 C.2          1    LIG   0.0000
  19 C19          3.6567     2.1467     2.3182 C.ar         1    LIG   0.0000
  20 C20          2.4627     1.4364     2.3854 C.ar         1    LIG   0.0000
  21 C21          1.9369     1.1103     3.6312 C.ar         1    LIG   0.0000
  22 Br22         0.2551     0.1098     3.7418 Br           1    LIG   0.0000
  23 C23          2.5894     1.4849     4.8015 C.ar         1    LIG   0.0000
  24 C24          3.7833     2.1947     4.7244 C.ar         1    LIG   0.0000
  25 C25          4.3171     2.5263     3.4827 C.ar         1    LIG   0.0000
  26 O26          5.4759     3.2156     3.4080 O.3          1    LIG   0.0000
  27 H            3.1431    -3.5298    -1.4591 H            1    LIG   0.0000
  28 H            2.3335    -2.1454    -1.7668 H            1    LIG   0.0000
  29 H            3.9365    -2.2374    -2.0648 H            1    LIG   0.0000
  30 H            2.7564    -2.3422     0.5684 H            1    LIG   0.0000
  31 H            4.7523    -3.6333     0.4279 H            1    LIG   0.0000
  32 H            5.5457    -2.3409    -0.1778 H            1    LIG   0.0000
  33 H            5.0015    -2.3169     1.3616 H            1    LIG   0.0000
  34 H            1.2139    -1.6939    -0.0216 H            1    LIG   0.0000
  35 H           -0.8793    -0.5250     0.0057 H            1    LIG   0.0000
  36 H           -2.5543     0.5630    -2.7725 H            1    LIG   0.0000
  37 H           -1.5140     1.8151    -2.6431 H            1    LIG   0.0000
  38 H           -1.1712     0.3908    -1.9215 H            1    LIG   0.0000
  39 H           -3.8193    -0.1490    -0.8606 H            1    LIG   0.0000
  40 H           -2.4362    -0.3211    -0.0096 H            1    LIG   0.0000
  41 H           -3.6395     0.6188     0.5694 H            1    LIG   0.0000
  42 H            1.1516     3.0985     0.0079 H            1    LIG   0.0000
  43 H            5.0476     2.9888     0.9363 H            1    LIG   0.0000
  44 H            1.9882     1.1635     1.5485 H            1    LIG   0.0000
  45 H            2.2027     1.2454     5.6921 H            1    LIG   0.0000
  46 H            4.2581     2.4668     5.5614 H            1    LIG   0.0000
  47 H            5.9503     3.4883     4.2450 H            1    LIG   0.0000
@<TRIPOS>BOND
   1        1        2 1
   2        2        3 1
   3        2        4 1
   4        4        5 1
   5        5        6 ar
   6        6        7 ar
   7        7        8 ar
   8        8        9 1
   9        9       10 2
  10        9       11 2
  11        9       12 1
  12       12       13 1
  13       12       14 1
  14        8       15 ar
  15       15       16 ar
  16       16        5 ar
  17       16       17 1
  18       17       18 2
  19       18       19 1
  20       19       20 ar
  21       20       21 ar
  22       21       22 1
  23       21       23 ar
  24       23       24 ar
  25       24       25 ar
  26       25       19 ar
  27       25       26 1
  28        1       27 1
  29        1       28 1
  30        1       29 1
  31        2       30 1
  32        3       31 1
  33        3       32 1
  34        3       33 1
  35        6       34 1
  36        7       35 1
  37       13       36 1
  38       13       37 1
  39       13       38 1
  40       14       39 1
  41       14       40 1
  42       14       41 1
  43       15       42 1
  44       18       43 1
  45       20       44 1
  46       23       45 1
  47       24       46 1
  48       26       47 1

@<TRIPOS>MOLECULE

  47   48
SMALL
USER_CHARGES
@<TRIPOS>ATOM
   1 C1           3.2013    -2.5315    -1.4540 C.3          1    LIG   0.0000
   2 C2           3.4915    -2.0481    -0.0424 C.3          1    LIG   0.0000
   3 C3           4.8106    -2.6350     0.4330 C.3          1    LIG   0.0000
   4 O4           3.5742    -0.6305    -0.0352 O.3          1    LIG   0.0000
   5 C5           2.3915     0.0207    -0.0213 C.ar         1    LIG   0.0000
   6 C6           1.1980    -0.6941    -0.0150 C.ar         1    LIG   0.0000
   7 C7          -0.0177    -0.0175     0.0006 C.ar         1    LIG   0.0000
   8 C8          -0.0197     1.3735     0.0090 C.ar         1    LIG   0.0000
   9 S9          -1.5352     2.2275     0.0286 S.o2         1    LIG   0.0000
  10 O10         -2.5841     1.3544    -0.4309 O.2          1    LIG   0.0000
  11 O11         -1.8248     2.6605     1.3711 O.2          1    LIG   0.0000
  12 N12         -1.4400     3.5257    -0.9524 N.3          1    LIG   0.0000
  13 C13         -0.7434     4.6165    -0.2555 C.3          1    LIG   0.0000
  14 C14         -0.6962     3.1673    -2.1686 C.3          1    LIG   0.0000
  15 C15          1.1673     2.0986     0.0019 C.ar         1    LIG   0.0000
  16 C16          2.3764     1.4116    -0.0136 C.ar         1    LIG   0.0000
  17 N17          3.5801     2.1272    -0.0211 N.2          1    LIG   0.0000
  18 C18          4.1907     2.4787     1.0114 C.2          1    LIG   0.0000
  19 C19          3.6567     2.1467     2.3182 C.ar         1    LIG   0.0000
  20 C20          2.4627     1.4364     2.3854 C.ar         1    LIG   0.0000
  21 C21          1.9369     1.1103     3.6312 C.ar         1    LIG   0.0000
  22 Br22         0.2551     0.1098     3.7418 Br           1    LIG   0.0000
  23 C23          2.5894     1.4849     4.8015 C.ar         1    LIG   0.0000
  24 C24          3.7833     2.1947     4.7244 C.ar         1    LIG   0.0000
  25 C25          4.3171     2.5263     3.4827 C.ar         1    LIG   0.0000
  26 O26          5.4759     3.2156     3.4080 O.3          1    LIG   0.0000
  27 H            3.1431    -3.5298    -1.4591 H            1    LIG   0.0000
  28 H            2.3335    -2.1454    -1.7668 H            1    LIG   0.0000
  29 H            3.9365    -2.2374    -2.0648 H            1    LIG   0.0000
  30 H            2.7564    -2.3422     0.5684 H            1    LIG   0.0000
  31 H            4.7523    -3.6333     0.4279 H            1    LIG   0.0000
  32 H            5.5457    -2.3409    -0.1778 H            1    LIG   0.0000
  33 H            5.0015    -2.3169     1.3616 H            1    LIG   0.0000
  34 H            1.2139    -1.6939    -0.0216 H            1    LIG   0.0000
  35 H           -0.8793    -0.5250     0.0057 H            1    LIG   0.0000
  36 H           -0.6850     5.4130    -0.8573 H            1    LIG   0.0000
  37 H           -1.2494     4.8603     0.5719 H            1    LIG   0.0000
  38 H            0.1782     4.3183    -0.0069 H            1    LIG   0.0000
  39 H           -0.6378     3.9638    -2.7705 H            1    LIG   0.0000
  40 H            0.2254     2.8691    -1.9200 H            1    LIG   0.0000
  41 H           -1.1701     2.4253    -2.6427 H            1    LIG   0.0000
  42 H            1.1516     3.0985     0.0079 H            1    LIG   0.0000
  43 H            5.0476     2.9888     0.9363 H            1    LIG   0.0000
  44 H            1.9882     1.1635     1.5485 H            1    LIG   0.0000
  45 H            2.2027     1.2454     5.6921 H            1    LIG   0.0000
  46 H            4.2581     2.4668     5.5614 H            1    LIG   0.0000
  47 H            5.9503     3.4883     4.2450 H            1    LIG   0.0000
@<TRIPOS>BOND
   1        1        2 1
   2        2        3 1
   3        2        4 1
   4        4        5 1
   5        5        6 ar
   6        6        7 ar
   7        7        8 ar
   8        8        9 1
   9        9       10 2
  10        9       11 2
  11        9       12 1
  12       12       13 1
  13       12       14 1
  14        8       15 ar
  15       15       16 ar
  16       16        5 ar
  17       16       17 1
  18       17       18 2
  19       18       19 1
  20       19       20 ar
  21       20       21 ar
  22       21       22 1
  23       21       23 ar
  24       23       24 ar
  25       24       25 ar
  26       25       19 ar
  27       25       26 1
  28        1       27 1
  29        1       28 1
  30        1       29 1
  31        2       30 1
  32        3       31 1
  33        3       32 1
  34        3       33 1
  35        6       34 1
  36        7       35 1
  37       13       36 1
  38       13       37 1
  39       13       38 1
  40       14       39 1
  41       14       40 1
  42       14       41 1
  43       15       42 1
  44       18       43 1
  45       20       44 1
  46       23       45 1
  47       24       46 1
  48       26       47 1

@<TRIPOS>MOLECULE

  47   48
SMALL
USER_CHARGES
@<TRIPOS>ATOM
   1 C1           5.8421    -0.8974    -0.7777 C.3          1    LIG   0.0000
   2 C2           4.5761    -0.0607    -0.8646 C.3          1    LIG   0.0000
   3 C3           4.0863    -0.0308    -2.3033 C.3          1    LIG   0.0000
   4 O4           3.5742    -0.6305    -0.0352 O.3          1    LIG   0.0000
   5 C5           2.3915     0.0207    -0.0213 C.ar         1    LIG   0.0000
   6 C6           1.1980    -0.6941    -0.0150 C.ar         1    LIG   0.0000
   7 C7          -0.0177    -0.0175     0.0006 C.ar         1    LIG   0.0000
   8 C8          -0.0197     1.3735     0.0090 C.ar         1    LIG   0.0000
   9 S9          -1.5352     2.2275     0.0286 S.o2         1    LIG   0.0000
  10 O10         -1.8504     2.6765    -1.3028 O.2          1    LIG   0.0000
  11 O11         -2.5752     1.3489     0.4977 O.2          1    LIG   0.0000
  12 N12         -1.4211     3.5139     1.0231 N.3          1    LIG   0.0000
  13 C13         -0.6541     3.1411     2.2205 C.3          1    LIG   0.0000
  14 C14         -0.7378     4.6130     0.3260 C.3          1    LIG   0.0000
  15 C15          1.1673     2.0986     0.0019 C.ar         1    LIG   0.0000
  16 C16          2.3764     1.4116    -0.0136 C.ar         1    LIG   0.0000
  17 N17          3.5801     2.1272    -0.0211 N.2          1    LIG   0.0000
  18 C18          4.1907     2.4787     1.0114 C.2          1    LIG   0.0000
  19 C19          3.6567     2.1467     2.3182 C.ar         1    LIG   0.0000
  20 C20          2.4627     1.4364     2.3854 C.ar         1    LIG   0.0000
  21 C21          1.9369     1.1103     3.6312 C.ar         1    LIG   0.0000
  22 Br22         0.2551     0.1098     3.7418 Br           1    LIG   0.0000
  23 C23          2.5894     1.4849     4.8015 C.ar         1    LIG   0.0000
  24 C24          3.7833     2.1947     4.7244 C.ar         1    LIG   0.0000
  25 C25          4.3171     2.5263     3.4827 C.ar         1    LIG   0.0000
  26 O26          5.4759     3.2156     3.4080 O.3          1    LIG   0.0000
  27 H            6.5477    -0.4961    -1.3618 H            1    LIG   0.0000
  28 H            6.1643    -0.9171     0.1688 H            1    LIG   0.0000
  29 H            5.6472    -1.8296    -1.0829 H            1    LIG   0.0000
  30 H            4.7710     0.8715    -0.5595 H            1    LIG   0.0000
  31 H            4.7919     0.3704    -2.8873 H            1    LIG   0.0000
  32 H            3.8914    -0.9630    -2.6084 H            1    LIG   0.0000
  33 H            3.2534     0.5196    -2.3605 H            1    LIG   0.0000
  34 H            1.2139    -1.6939    -0.0216 H            1    LIG   0.0000
  35 H           -0.8793    -0.5250     0.0057 H            1    LIG   0.0000
  36 H           -0.5841     3.9303     2.8306 H            1    LIG   0.0000
  37 H           -1.1190     2.3934     2.6946 H            1    LIG   0.0000
  38 H            0.2625     2.8460     1.9507 H            1    LIG   0.0000
  39 H           -0.6678     5.4022     0.9362 H            1    LIG   0.0000
  40 H            0.1788     4.3179     0.0563 H            1    LIG   0.0000
  41 H           -1.2595     4.8666    -0.4885 H            1    LIG   0.0000
  42 H            1.1516     3.0985     0.0079 H            1    LIG   0.0000
  43 H            5.0476     2.9888     0.9363 H            1    LIG   0.0000
  44 H            1.9882     1.1635     1.5485 H            1    LIG   0.0000
  45 H            2.2027     1.2454     5.6921 H            1    LIG   0.0000
  46 H            4.2581     2.4668     5.5614 H            1    LIG   0.0000
  47 H            5.9503     3.4883     4.2450 H            1    LIG   0.0000
@<TRIPOS>BOND
   1        1        2 1
   2        2        3 1
   3        2        4 1
   4        4        5 1
   5        5        6 ar
   6        6        7 ar
   7        7        8 ar
   8        8        9 1
   9        9       10 2
  10        9       11 2
  11        9       12 1
  12       12       13 1
  13       12       14 1
  14        8       15 ar
  15       15       16 ar
  16       16        5 ar
  17       16       17 1
  18       17       18 2
  19       18       19 1
  20       19       20 ar
  21       20       21 ar
  22       21       22 1
  23       21       23 ar
  24       23       24 ar
  25       24       25 ar
  26       25       19 ar
  27       25       26 1
  28        1       27 1
  29        1       28 1
  30        1       29 1
  31        2       30 1
  32        3       31 1
  33        3       32 1
  34        3       33 1
  35        6       34 1
  36        7       35 1
  37       13       36 1
  38       13       37 1
  39       13       38 1
  40       14       39 1
  41       14       40 1
  42       14       41 1
  43       15       42 1
  44       18       43 1
  45       20       44 1
  46       23       45 1
  47       24       46 1
  48       26       47 1

@<TRIPOS>MOLECULE

  47   48
SMALL
USER_CHARGES
@<TRIPOS>ATOM
   1 C1           4.8021    -2.6295    -0.5472 C.3          1    LIG   0.0000
   2 C2           3.4915    -2.0481    -0.0424 C.3          1    LIG   0.0000
   3 C3           3.2259    -2.5473     1.3684 C.3          1    LIG   0.0000
   4 O4           3.5742    -0.6305    -0.0352 O.3          1    LIG   0.0000
   5 C5           2.3915     0.0207    -0.0213 C.ar         1    LIG   0.0000
   6 C6           1.1980    -0.6941    -0.0150 C.ar         1    LIG   0.0000
   7 C7          -0.0177    -0.0175     0.0006 C.ar         1    LIG   0.0000
   8 C8          -0.0197     1.3735     0.0090 C.ar         1    LIG   0.0000
   9 S9          -1.5352     2.2275     0.0286 S.o2         1    LIG   0.0000
  10 O10         -2.5241     1.4347     0.7122 O.2          1    LIG   0.0000
  11 O11         -1.3696     3.4833     0.7134 O.2          1    LIG   0.0000
  12 N12         -2.0232     2.5034    -1.5019 N.3          1    LIG   0.0000
  13 C13         -1.0138     3.3126    -2.1998 C.3          1    LIG   0.0000
  14 C14         -2.1923     1.2213    -2.2010 C.3          1    LIG   0.0000
  15 C15          1.1673     2.0986     0.0019 C.ar         1    LIG   0.0000
  16 C16          2.3764     1.4116    -0.0136 C.ar         1    LIG   0.0000
  17 N17          3.5801     2.1272    -0.0211 N.2          1    LIG   0.0000
  18 C18          4.1710     2.4900    -1.0611 C.2          1    LIG   0.0000
  19 C19          3.6122     2.1723    -2.3611 C.ar         1    LIG   0.0000
  20 C20          3.4280     0.8346    -2.6945 C.ar         1    LIG   0.0000
  21 C21          2.8934     0.5129    -3.9376 C.ar         1    LIG   0.0000
  22 Br22         2.6283    -1.3678    -4.4216 Br           1    LIG   0.0000
  23 C23          2.5433     1.5092    -4.8434 C.ar         1    LIG   0.0000
  24 C24          2.7307     2.8445    -4.5010 C.ar         1    LIG   0.0000
  25 C25          3.2656     3.1764    -3.2599 C.ar         1    LIG   0.0000
  26 O26          3.4477     4.4727    -2.9278 O.3          1    LIG   0.0000
  27 H            4.7438    -3.6278    -0.5523 H            1    LIG   0.0000
  28 H            4.9768    -2.3011    -1.4755 H            1    LIG   0.0000
  29 H            5.5477    -2.3422     0.0539 H            1    LIG   0.0000
  30 H            2.7459    -2.3354    -0.6436 H            1    LIG   0.0000
  31 H            3.1676    -3.5456     1.3634 H            1    LIG   0.0000
  32 H            3.9715    -2.2599     1.9696 H            1    LIG   0.0000
  33 H            2.3637    -2.1648     1.7006 H            1    LIG   0.0000
  34 H            1.2139    -1.6939    -0.0216 H            1    LIG   0.0000
  35 H           -0.8793    -0.5250     0.0057 H            1    LIG   0.0000
  36 H           -1.3132     3.4819    -3.1388 H            1    LIG   0.0000
  37 H           -0.8988     4.1848    -1.7242 H            1    LIG   0.0000
  38 H           -0.1426     2.8217    -2.2111 H            1    LIG   0.0000
  39 H           -2.4917     1.3906    -3.1400 H            1    LIG   0.0000
  40 H           -1.3211     0.7304    -2.2123 H            1    LIG   0.0000
  41 H           -2.8790     0.6708    -1.7263 H            1    LIG   0.0000
  42 H            1.1516     3.0985     0.0079 H            1    LIG   0.0000
  43 H            5.0292     2.9994    -0.9967 H            1    LIG   0.0000
  44 H            3.6770     0.1130    -2.0484 H            1    LIG   0.0000
  45 H            2.1597     1.2672    -5.7346 H            1    LIG   0.0000
  46 H            2.4809     3.5660    -5.1468 H            1    LIG   0.0000
  47 H            3.1985     5.1941    -3.5739 H            1    LIG   0.0000
@<TRIPOS>BOND
   1        1        2 1
   2        2        3 1
   3        2        4 1
   4        4        5 1
   5        5        6 ar
   6        6        7 ar
   7        7        8 ar
   8        8        9 1
   9        9       10 2
  10        9       11 2
  11        9       12 1
  12       12       13 1
  13       12       14 1
  14        8       15 ar
  15       15       16 ar
  16       16        5 ar
  17       16       17 1
  18       17       18 2
  19       18       19 1
  20       19       20 ar
  21       20       21 ar
  22       21       22 1
  23       21       23 ar
  24       23       24 ar
  25       24       25 ar
  26       25       19 ar
  27       25       26 1
  28        1       27 1
  29        1       28 1
  30        1       29 1
  31        2       30 1
  32        3       31 1
  33        3       32 1
  34        3       33 1
  35        6       34 1
  36        7       35 1
  37       13       36 1
  38       13       37 1
  39       13       38 1
  40       14       39 1
  41       14       40 1
  42       14       41 1
  43       15       42 1
  44       18       43 1
  45       20       44 1
  46       23       45 1
  47       24       46 1
  48       26       47 1

@<TRIPOS>MOLECULE

  47   48
SMALL
USER_CHARGES
@<TRIPOS>ATOM
   1 C1           4.8021    -2.6295    -0.5472 C.3          1    LIG   0.0000
   2 C2           3.4915    -2.0481    -0.0424 C.3          1    LIG   0.0000
   3 C3           3.2259    -2.5473     1.3684 C.3          1    LIG   0.0000
   4 O4           3.5742    -0.6305    -0.0352 O.3          1    LIG   0.0000
   5 C5           2.3915     0.0207    -0.0213 C.ar         1    LIG   0.0000
   6 C6           1.1980    -0.6941    -0.0150 C.ar         1    LIG   0.0000
   7 C7          -0.0177    -0.0175     0.0006 C.ar         1    LIG   0.0000
   8 C8          -0.0197     1.3735     0.0090 C.ar         1    LIG   0.0000
   9 S9          -1.5352     2.2275     0.0286 S.o2         1    LIG   0.0000
  10 O10         -1.3826     3.4915    -0.6442 O.2          1    LIG   0.0000
  11 O11         -2.5371     1.4428    -0.6454 O.2          1    LIG   0.0000
  12 N12         -1.9938     2.4850     1.5714 N.3          1    LIG   0.0000
  13 C13         -2.1495     1.1946     2.2582 C.3          1    LIG   0.0000
  14 C14         -0.9710     3.2860     2.2594 C.3          1    LIG   0.0000
  15 C15          1.1673     2.0986     0.0019 C.ar         1    LIG   0.0000
  16 C16          2.3764     1.4116    -0.0136 C.ar         1    LIG   0.0000
  17 N17          3.5801     2.1272    -0.0211 N.2          1    LIG   0.0000
  18 C18          4.1710     2.4900    -1.0611 C.2          1    LIG   0.0000
  19 C19          3.6122     2.1723    -2.3611 C.ar         1    LIG   0.0000
  20 C20          3.4280     0.8346    -2.6945 C.ar         1    LIG   0.0000
  21 C21          2.8934     0.5129    -3.9376 C.ar         1    LIG   0.0000
  22 Br22         2.6283    -1.3678    -4.4216 Br           1    LIG   0.0000
  23 C23          2.5433     1.5092    -4.8434 C.ar         1    LIG   0.0000
  24 C24          2.7307     2.8445    -4.5010 C.ar         1    LIG   0.0000
  25 C25          3.2656     3.1764    -3.2599 C.ar         1    LIG   0.0000
  26 O26          3.4477     4.4727    -2.9278 O.3          1    LIG   0.0000
  27 H            4.7438    -3.6278    -0.5523 H            1    LIG   0.0000
  28 H            4.9768    -2.3011    -1.4755 H            1    LIG   0.0000
  29 H            5.5477    -2.3422     0.0539 H            1    LIG   0.0000
  30 H            2.7459    -2.3354    -0.6436 H            1    LIG   0.0000
  31 H            3.1676    -3.5456     1.3634 H            1    LIG   0.0000
  32 H            3.9715    -2.2599     1.9696 H            1    LIG   0.0000
  33 H            2.3637    -2.1648     1.7006 H            1    LIG   0.0000
  34 H            1.2139    -1.6939    -0.0216 H            1    LIG   0.0000
  35 H           -0.8793    -0.5250     0.0057 H            1    LIG   0.0000
  36 H           -2.4309     1.3526     3.2047 H            1    LIG   0.0000
  37 H           -2.8453     0.6498     1.7902 H            1    LIG   0.0000
  38 H           -1.2784     0.7037     2.2469 H            1    LIG   0.0000
  39 H           -1.2524     3.4439     3.2059 H            1    LIG   0.0000
  40 H           -0.0999     2.7951     2.2481 H            1    LIG   0.0000
  41 H           -0.8651     4.1637     1.7922 H            1    LIG   0.0000
  42 H            1.1516     3.0985     0.0079 H            1    LIG   0.0000
  43 H            5.0292     2.9994    -0.9967 H            1    LIG   0.0000
  44 H            3.6770     0.1130    -2.0484 H            1    LIG   0.0000
  45 H            2.1597     1.2672    -5.7346 H            1    LIG   0.0000
  46 H            2.4809     3.5660    -5.1468 H            1    LIG   0.0000
  47 H            3.1985     5.1941    -3.5739 H            1    LIG   0.0000
@<TRIPOS>BOND
   1        1        2 1
   2        2        3 1
   3        2        4 1
   4        4        5 1
   5        5        6 ar
   6        6        7 ar
   7        7        8 ar
   8        8        9 1
   9        9       10 2
  10        9       11 2
  11        9       12 1
  12       12       13 1
  13       12       14 1
  14        8       15 ar
  15       15       16 ar
  16       16        5 ar
  17       16       17 1
  18       17       18 2
  19       18       19 1
  20       19       20 ar
  21       20       21 ar
  22       21       22 1
  23       21       23 ar
  24       23       24 ar
  25       24       25 ar
  26       25       19 ar
  27       25       26 1
  28        1       27 1
  29        1       28 1
  30        1       29 1
  31        2       30 1
  32        3       31 1
  33        3       32 1
  34        3       33 1
  35        6       34 1
  36        7       35 1
  37       13       36 1
  38       13       37 1
  39       13       38 1
  40       14       39 1
  41       14       40 1
  42       14       41 1
  43       15       42 1
  44       18       43 1
  45       20       44 1
  46       23       45 1
  47       24       46 1
  48       26       47 1

@<TRIPOS>MOLECULE

  47   48
SMALL
USER_CHARGES
@<TRIPOS>ATOM
   1 C1           5.0273    -1.0918     1.8199 C.3          1    LIG   0.0000
   2 C2           4.5904    -0.0699     0.7830 C.3          1    LIG   0.0000
   3 C3           5.7803     0.3165    -0.0803 C.3          1    LIG   0.0000
   4 O4           3.5742    -0.6305    -0.0352 O.3          1    LIG   0.0000
   5 C5           2.3915     0.0207    -0.0213 C.ar         1    LIG   0.0000
   6 C6           1.1980    -0.6941    -0.0150 C.ar         1    LIG   0.0000
   7 C7          -0.0177    -0.0175     0.0006 C.ar         1    LIG   0.0000
   8 C8          -0.0197     1.3735     0.0090 C.ar         1    LIG   0.0000
   9 S9          -1.5352     2.2275     0.0286 S.o2         1    LIG   0.0000
  10 O10         -1.3226     3.5718     0.4990 O.2          1    LIG   0.0000
  11 O11         -2.0819     2.2657    -1.3030 O.2          1    LIG   0.0000
  12 N12         -2.5770     1.4627     1.0219 N.3          1    LIG   0.0000
  13 C13         -3.1629     0.3095     0.3235 C.3          1    LIG   0.0000
  14 C14         -1.8614     0.9986     2.2192 C.3          1    LIG   0.0000
  15 C15          1.1673     2.0986     0.0019 C.ar         1    LIG   0.0000
  16 C16          2.3764     1.4116    -0.0136 C.ar         1    LIG   0.0000
  17 N17          3.5801     2.1272    -0.0211 N.2          1    LIG   0.0000
  18 C18          4.1710     2.4900    -1.0611 C.2          1    LIG   0.0000
  19 C19          3.6122     2.1723    -2.3611 C.ar         1    LIG   0.0000
  20 C20          3.4280     0.8346    -2.6945 C.ar         1    LIG   0.0000
  21 C21          2.8934     0.5129    -3.9376 C.ar         1    LIG   0.0000
  22 Br22         2.6283    -1.3678    -4.4216 Br           1    LIG   0.0000
  23 C23          2.5433     1.5092    -4.8434 C.ar         1    LIG   0.0000
  24 C24          2.7307     2.8445    -4.5010 C.ar         1    LIG   0.0000
  25 C25          3.2656     3.1764    -3.2599 C.ar         1    LIG   0.0000
  26 O26          3.4477     4.4727    -2.9278 O.3          1    LIG   0.0000
  27 H            5.7429    -0.6970     2.3961 H            1    LIG   0.0000
  28 H            4.2445    -1.3460     2.3878 H            1    LIG   0.0000
  29 H            5.3819    -1.9047     1.3580 H            1    LIG   0.0000
  30 H            4.2358     0.7430     1.2449 H            1    LIG   0.0000
  31 H            6.4960     0.7113     0.4959 H            1    LIG   0.0000
  32 H            6.1350    -0.4965    -0.5423 H            1    LIG   0.0000
  33 H            5.4929     0.9888    -0.7625 H            1    LIG   0.0000
  34 H            1.2139    -1.6939    -0.0216 H            1    LIG   0.0000
  35 H           -0.8793    -0.5250     0.0057 H            1    LIG   0.0000
  36 H           -3.8021    -0.1597     0.9329 H            1    LIG   0.0000
  37 H           -3.6497     0.6251    -0.4910 H            1    LIG   0.0000
  38 H           -2.4356    -0.3215     0.0536 H            1    LIG   0.0000
  39 H           -2.5006     0.5294     2.8286 H            1    LIG   0.0000
  40 H           -1.1341     0.3677     1.9492 H            1    LIG   0.0000
  41 H           -1.4629     1.7831     2.6943 H            1    LIG   0.0000
  42 H            1.1516     3.0985     0.0079 H            1    LIG   0.0000
  43 H            5.0292     2.9994    -0.9967 H            1    LIG   0.0000
  44 H            3.6770     0.1130    -2.0484 H            1    LIG   0.0000
  45 H            2.1597     1.2672    -5.7346 H            1    LIG   0.0000
  46 H            2.4809     3.5660    -5.1468 H            1    LIG   0.0000
  47 H            3.1985     5.1941    -3.5739 H            1    LIG   0.0000
@<TRIPOS>BOND
   1        1        2 1
   2        2        3 1
   3        2        4 1
   4        4        5 1
   5        5        6 ar
   6        6        7 ar
   7        7        8 ar
   8        8        9 1
   9        9       10 2
  10        9       11 2
  11        9       12 1
  12       12       13 1
  13       12       14 1
  14        8       15 ar
  15       15       16 ar
  16       16        5 ar
  17       16       17 1
  18       17       18 2
  19       18       19 1
  20       19       20 ar
  21       20       21 ar
  22       21       22 1
  23       21       23 ar
  24       23       24 ar
  25       24       25 ar
  26       25       19 ar
  27       25       26 1
  28        1       27 1
  29        1       28 1
  30        1       29 1
  31        2       30 1
  32        3       31 1
  33        3       32 1
  34        3       33 1
  35        6       34 1
  36        7       35 1
  37       13       36 1
  38       13       37 1
  39       13       38 1
  40       14       39 1
  41       14       40 1
  42       14       41 1
  43       15       42 1
  44       18       43 1
  45       20       44 1
  46       23       45 1
  47       24       46 1
  48       26       47 1

@<TRIPOS>MOLECULE

  47   48
SMALL
USER_CHARGES
@<TRIPOS>ATOM
   1 C1           4.8021    -2.6295    -0.5472 C.3          1    LIG   0.0000
   2 C2           3.4915    -2.0481    -0.0424 C.3          1    LIG   0.0000
   3 C3           3.2259    -2.5473     1.3684 C.3          1    LIG   0.0000
   4 O4           3.5742    -0.6305    -0.0352 O.3          1    LIG   0.0000
   5 C5           2.3915     0.0207    -0.0213 C.ar         1    LIG   0.0000
   6 C6           1.1980    -0.6941    -0.0150 C.ar         1    LIG   0.0000
   7 C7          -0.0177    -0.0175     0.0006 C.ar         1    LIG   0.0000
   8 C8          -0.0197     1.3735     0.0090 C.ar         1    LIG   0.0000
   9 S9          -1.5352     2.2275     0.0286 S.o2         1    LIG   0.0000
  10 O10         -2.5241     1.4347     0.7122 O.2          1    LIG   0.0000
  11 O11         -1.3696     3.4833     0.7134 O.2          1    LIG   0.0000
  12 N12         -2.0232     2.5034    -1.5019 N.3          1    LIG   0.0000
  13 C13         -1.3030     3.6645    -2.0441 C.3          1    LIG   0.0000
  14 C14         -1.7387     1.3210    -2.3277 C.3          1    LIG   0.0000
  15 C15          1.1673     2.0986     0.0019 C.ar         1    LIG   0.0000
  16 C16          2.3764     1.4116    -0.0136 C.ar         1    LIG   0.0000
  17 N17          3.5801     2.1272    -0.0211 N.2          1    LIG   0.0000
  18 C18          4.1710     2.4900    -1.0611 C.2          1    LIG   0.0000
  19 C19          3.6122     2.1723    -2.3611 C.ar         1    LIG   0.0000
  20 C20          2.3459     2.6550    -2.6742 C.ar         1    LIG   0.0000
  21 C21          1.7955     2.3589    -3.9168 C.ar         1    LIG   0.0000
  22 Br22         0.0118     3.0320    -4.3721 Br           1    LIG   0.0000
  23 C23          2.4946     1.5908    -4.8424 C.ar         1    LIG   0.0000
  24 C24          3.7608     1.1127    -4.5206 C.ar         1    LIG   0.0000
  25 C25          4.3198     1.4029    -3.2796 C.ar         1    LIG   0.0000
  26 O26          5.5488     0.9385    -2.9672 O.3          1    LIG   0.0000
  27 H            4.7438    -3.6278    -0.5523 H            1    LIG   0.0000
  28 H            4.9768    -2.3011    -1.4755 H            1    LIG   0.0000
  29 H            5.5477    -2.3422     0.0539 H            1    LIG   0.0000
  30 H            2.7459    -2.3354    -0.6436 H            1    LIG   0.0000
  31 H            3.1676    -3.5456     1.3634 H            1    LIG   0.0000
  32 H            3.9715    -2.2599     1.9696 H            1    LIG   0.0000
  33 H            2.3637    -2.1648     1.7006 H            1    LIG   0.0000
  34 H            1.2139    -1.6939    -0.0216 H            1    LIG   0.0000
  35 H           -0.8793    -0.5250     0.0057 H            1    LIG   0.0000
  36 H           -1.6024     3.8338    -2.9831 H            1    LIG   0.0000
  37 H           -1.4966     4.4689    -1.4824 H            1    LIG   0.0000
  38 H           -0.3201     3.4807    -2.0357 H            1    LIG   0.0000
  39 H           -2.0381     1.4902    -3.2667 H            1    LIG   0.0000
  40 H           -0.7558     1.1372    -2.3192 H            1    LIG   0.0000
  41 H           -2.2287     0.5311    -1.9588 H            1    LIG   0.0000
  42 H            1.1516     3.0985     0.0079 H            1    LIG   0.0000
  43 H            5.0292     2.9994    -0.9967 H            1    LIG   0.0000
  44 H            1.8375     3.2080    -2.0141 H            1    LIG   0.0000
  45 H            2.0897     1.3837    -5.7330 H            1    LIG   0.0000
  46 H            4.2694     0.5604    -5.1811 H            1    LIG   0.0000
  47 H            6.0571     0.3856    -3.6275 H            1    LIG   0.0000
@<TRIPOS>BOND
   1        1        2 1
   2        2        3 1
   3        2        4 1
   4        4        5 1
   5        5        6 ar
   6        6        7 ar
   7        7        8 ar
   8        8        9 1
   9        9       10 2
  10        9       11 2
  11        9       12 1
  12       12       13 1
  13       12       14 1
  14        8       15 ar
  15       15       16 ar
  16       16        5 ar
  17       16       17 1
  18       17       18 2
  19       18       19 1
  20       19       20 ar
  21       20       21 ar
  22       21       22 1
  23       21       23 ar
  24       23       24 ar
  25       24       25 ar
  26       25       19 ar
  27       25       26 1
  28        1       27 1
  29        1       28 1
  30        1       29 1
  31        2       30 1
  32        3       31 1
  33        3       32 1
  34        3       33 1
  35        6       34 1
  36        7       35 1
  37       13       36 1
  38       13       37 1
  39       13       38 1
  40       14       39 1
  41       14       40 1
  42       14       41 1
  43       15       42 1
  44       18       43 1
  45       20       44 1
  46       23       45 1
  47       24       46 1
  48       26       47 1

@<TRIPOS>MOLECULE

  47   48
SMALL
USER_CHARGES
@<TRIPOS>ATOM
   1 C1           4.8021    -2.6295    -0.5472 C.3          1    LIG   0.0000
   2 C2           3.4915    -2.0481    -0.0424 C.3          1    LIG   0.0000
   3 C3           3.2259    -2.5473     1.3684 C.3          1    LIG   0.0000
   4 O4           3.5742    -0.6305    -0.0352 O.3          1    LIG   0.0000
   5 C5           2.3915     0.0207    -0.0213 C.ar         1    LIG   0.0000
   6 C6           1.1980    -0.6941    -0.0150 C.ar         1    LIG   0.0000
   7 C7          -0.0177    -0.0175     0.0006 C.ar         1    LIG   0.0000
   8 C8          -0.0197     1.3735     0.0090 C.ar         1    LIG   0.0000
   9 S9          -1.5352     2.2275     0.0286 S.o2         1    LIG   0.0000
  10 O10         -1.3826     3.4915    -0.6442 O.2          1    LIG   0.0000
  11 O11         -2.5371     1.4428    -0.6454 O.2          1    LIG   0.0000
  12 N12         -1.9938     2.4850     1.5714 N.3          1    LIG   0.0000
  13 C13         -2.1495     1.1946     2.2582 C.3          1    LIG   0.0000
  14 C14         -0.9710     3.2860     2.2594 C.3          1    LIG   0.0000
  15 C15          1.1673     2.0986     0.0019 C.ar         1    LIG   0.0000
  16 C16          2.3764     1.4116    -0.0136 C.ar         1    LIG   0.0000
  17 N17          3.5801     2.1272    -0.0211 N.2          1    LIG   0.0000
  18 C18          4.1710     2.4900    -1.0611 C.2          1    LIG   0.0000
  19 C19          3.6122     2.1723    -2.3611 C.ar         1    LIG   0.0000
  20 C20          2.3459     2.6550    -2.6742 C.ar         1    LIG   0.0000
  21 C21          1.7955     2.3589    -3.9168 C.ar         1    LIG   0.0000
  22 Br22         0.0118     3.0320    -4.3721 Br           1    LIG   0.0000
  23 C23          2.4946     1.5908    -4.8424 C.ar         1    LIG   0.0000
  24 C24          3.7608     1.1127    -4.5206 C.ar         1    LIG   0.0000
  25 C25          4.3198     1.4029    -3.2796 C.ar         1    LIG   0.0000
  26 O26          5.5488     0.9385    -2.9672 O.3          1    LIG   0.0000
  27 H            4.7438    -3.6278    -0.5523 H            1    LIG   0.0000
  28 H            4.9768    -2.3011    -1.4755 H            1    LIG   0.0000
  29 H            5.5477    -2.3422     0.0539 H            1    LIG   0.0000
  30 H            2.7459    -2.3354    -0.6436 H            1    LIG   0.0000
  31 H            3.1676    -3.5456     1.3634 H            1    LIG   0.0000
  32 H            3.9715    -2.2599     1.9696 H            1    LIG   0.0000
  33 H            2.3637    -2.1648     1.7006 H            1    LIG   0.0000
  34 H            1.2139    -1.6939    -0.0216 H            1    LIG   0.0000
  35 H           -0.8793    -0.5250     0.0057 H            1    LIG   0.0000
  36 H           -2.4309     1.3526     3.2047 H            1    LIG   0.0000
  37 H           -2.8453     0.6498     1.7902 H            1    LIG   0.0000
  38 H           -1.2784     0.7037     2.2469 H            1    LIG   0.0000
  39 H           -1.2524     3.4439     3.2059 H            1    LIG   0.0000
  40 H           -0.0999     2.7951     2.2481 H            1    LIG   0.0000
  41 H           -0.8651     4.1637     1.7922 H            1    LIG   0.0000
  42 H            1.1516     3.0985     0.0079 H            1    LIG   0.0000
  43 H            5.0292     2.9994    -0.9967 H            1    LIG   0.0000
  44 H            1.8375     3.2080    -2.0141 H            1    LIG   0.0000
  45 H            2.0897     1.3837    -5.7330 H            1    LIG   0.0000
  46 H            4.2694     0.5604    -5.1811 H            1    LIG   0.0000
  47 H            6.0571     0.3856    -3.6275 H            1    LIG   0.0000
@<TRIPOS>BOND
   1        1        2 1
   2        2        3 1
   3        2        4 1
   4        4        5 1
   5        5        6 ar
   6        6        7 ar
   7        7        8 ar
   8        8        9 1
   9        9       10 2
  10        9       11 2
  11        9       12 1
  12       12       13 1
  13       12       14 1
  14        8       15 ar
  15       15       16 ar
  16       16        5 ar
  17       16       17 1
  18       17       18 2
  19       18       19 1
  20       19       20 ar
  21       20       21 ar
  22       21       22 1
  23       21       23 ar
  24       23       24 ar
  25       24       25 ar
  26       25       19 ar
  27       25       26 1
  28        1       27 1
  29        1       28 1
  30        1       29 1
  31        2       30 1
  32        3       31 1
  33        3       32 1
  34        3       33 1
  35        6       34 1
  36        7       35 1
  37       13       36 1
  38       13       37 1
  39       13       38 1
  40       14       39 1
  41       14       40 1
  42       14       41 1
  43       15       42 1
  44       18       43 1
  45       20       44 1
  46       23       45 1
  47       24       46 1
  48       26       47 1

@<TRIPOS>MOLECULE

  47   48
SMALL
USER_CHARGES
@<TRIPOS>ATOM
   1 C1           3.2013    -2.5315    -1.4540 C.3          1    LIG   0.0000
   2 C2           3.4915    -2.0481    -0.0424 C.3          1    LIG   0.0000
   3 C3           4.8106    -2.6350     0.4330 C.3          1    LIG   0.0000
   4 O4           3.5742    -0.6305    -0.0352 O.3          1    LIG   0.0000
   5 C5           2.3915     0.0207    -0.0213 C.ar         1    LIG   0.0000
   6 C6           1.1980    -0.6941    -0.0150 C.ar         1    LIG   0.0000
   7 C7          -0.0177    -0.0175     0.0006 C.ar         1    LIG   0.0000
   8 C8          -0.0197     1.3735     0.0090 C.ar         1    LIG   0.0000
   9 S9          -1.5352     2.2275     0.0286 S.o2         1    LIG   0.0000
  10 O10         -2.0563     2.2497     1.3708 O.2          1    LIG   0.0000
  11 O11         -1.3315     3.5773    -0.4296 O.2          1    LIG   0.0000
  12 N12         -2.5959     1.4745    -0.9536 N.3          1    LIG   0.0000
  13 C13         -1.9035     1.0249    -2.1699 C.3          1    LIG   0.0000
  14 C14         -3.1685     0.3129    -0.2580 C.3          1    LIG   0.0000
  15 C15          1.1673     2.0986     0.0019 C.ar         1    LIG   0.0000
  16 C16          2.3764     1.4116    -0.0136 C.ar         1    LIG   0.0000
  17 N17          3.5801     2.1272    -0.0211 N.2          1    LIG   0.0000
  18 C18          4.1710     2.4900    -1.0611 C.2          1    LIG   0.0000
  19 C19          3.6122     2.1723    -2.3611 C.ar         1    LIG   0.0000
  20 C20          2.4172     1.4625    -2.4134 C.ar         1    LIG   0.0000
  21 C21          1.8681     1.1495    -3.6524 C.ar         1    LIG   0.0000
  22 Br22         0.1847     0.1495    -3.7420 Br           1    LIG   0.0000
  23 C23          2.4980     1.5373    -4.8308 C.ar         1    LIG   0.0000
  24 C24          3.6926     2.2474    -4.7686 C.ar         1    LIG   0.0000
  25 C25          4.2504     2.5647    -3.5337 C.ar         1    LIG   0.0000
  26 O26          5.4102     3.2537    -3.4735 O.3          1    LIG   0.0000
  27 H            3.1431    -3.5298    -1.4591 H            1    LIG   0.0000
  28 H            2.3335    -2.1454    -1.7668 H            1    LIG   0.0000
  29 H            3.9365    -2.2374    -2.0648 H            1    LIG   0.0000
  30 H            2.7564    -2.3422     0.5684 H            1    LIG   0.0000
  31 H            4.7523    -3.6333     0.4279 H            1    LIG   0.0000
  32 H            5.5457    -2.3409    -0.1778 H            1    LIG   0.0000
  33 H            5.0015    -2.3169     1.3616 H            1    LIG   0.0000
  34 H            1.2139    -1.6939    -0.0216 H            1    LIG   0.0000
  35 H           -0.8793    -0.5250     0.0057 H            1    LIG   0.0000
  36 H           -2.5543     0.5630    -2.7725 H            1    LIG   0.0000
  37 H           -1.5140     1.8151    -2.6431 H            1    LIG   0.0000
  38 H           -1.1712     0.3908    -1.9215 H            1    LIG   0.0000
  39 H           -3.8193    -0.1490    -0.8606 H            1    LIG   0.0000
  40 H           -2.4362    -0.3211    -0.0096 H            1    LIG   0.0000
  41 H           -3.6395     0.6188     0.5694 H            1    LIG   0.0000
  42 H            1.1516     3.0985     0.0079 H            1    LIG   0.0000
  43 H            5.0292     2.9994    -0.9967 H            1    LIG   0.0000
  44 H            1.9585     1.1807    -1.5706 H            1    LIG   0.0000
  45 H            2.0947     1.3071    -5.7164 H            1    LIG   0.0000
  46 H            4.1507     2.5298    -5.6114 H            1    LIG   0.0000
  47 H            5.8687     3.5355    -4.3164 H            1    LIG   0.0000
@<TRIPOS>BOND
   1        1        2 1
   2        2        3 1
   3        2        4 1
   4        4        5 1
   5        5        6 ar
   6        6        7 ar
   7        7        8 ar
   8        8        9 1
   9        9       10 2
  10        9       11 2
  11        9       12 1
  12       12       13 1
  13       12       14 1
  14        8       15 ar
  15       15       16 ar
  16       16        5 ar
  17       16       17 1
  18       17       18 2
  19       18       19 1
  20       19       20 ar
  21       20       21 ar
  22       21       22 1
  23       21       23 ar
  24       23       24 ar
  25       24       25 ar
  26       25       19 ar
  27       25       26 1
  28        1       27 1
  29        1       28 1
  30        1       29 1
  31        2       30 1
  32        3       31 1
  33        3       32 1
  34        3       33 1
  35        6       34 1
  36        7       35 1
  37       13       36 1
  38       13       37 1
  39       13       38 1
  40       14       39 1
  41       14       40 1
  42       14       41 1
  43       15       42 1
  44       18       43 1
  45       20       44 1
  46       23       45 1
  47       24       46 1
  48       26       47 1

@<TRIPOS>MOLECULE

  47   48
SMALL
USER_CHARGES
@<TRIPOS>ATOM
   1 C1           3.4720    -2.9927    -0.4539 C.3          1    LIG   0.0000
   2 C2           3.5799    -1.9012     0.5985 C.3          1    LIG   0.0000
   3 C3           4.8743    -2.0737     1.3764 C.3          1    LIG   0.0000
   4 O4           3.5742    -0.6305    -0.0352 O.3          1    LIG   0.0000
   5 C5           2.3915     0.0207    -0.0213 C.ar         1    LIG   0.0000
   6 C6           1.1980    -0.6941    -0.0150 C.ar         1    LIG   0.0000
   7 C7          -0.0177    -0.0175     0.0006 C.ar         1    LIG   0.0000
   8 C8          -0.0197     1.3735     0.0090 C.ar         1    LIG   0.0000
   9 S9          -1.5352     2.2275     0.0286 S.o2         1    LIG   0.0000
  10 O10         -2.5841     1.3544    -0.4309 O.2          1    LIG   0.0000
  11 O11         -1.8248     2.6605     1.3711 O.2          1    LIG   0.0000
  12 N12         -1.4400     3.5257    -0.9524 N.3          1    LIG   0.0000
  13 C13         -0.7434     4.6165    -0.2555 C.3          1    LIG   0.0000
  14 C14         -0.6962     3.1673    -2.1686 C.3          1    LIG   0.0000
  15 C15          1.1673     2.0986     0.0019 C.ar         1    LIG   0.0000
  16 C16          2.3764     1.4116    -0.0136 C.ar         1    LIG   0.0000
  17 N17          3.5801     2.1272    -0.0211 N.2          1    LIG   0.0000
  18 C18          4.1710     2.4900    -1.0611 C.2          1    LIG   0.0000
  19 C19          3.6122     2.1723    -2.3611 C.ar         1    LIG   0.0000
  20 C20          2.4172     1.4625    -2.4134 C.ar         1    LIG   0.0000
  21 C21          1.8681     1.1495    -3.6524 C.ar         1    LIG   0.0000
  22 Br22         0.1847     0.1495    -3.7420 Br           1    LIG   0.0000
  23 C23          2.4980     1.5373    -4.8308 C.ar         1    LIG   0.0000
  24 C24          3.6926     2.2474    -4.7686 C.ar         1    LIG   0.0000
  25 C25          4.2504     2.5647    -3.5337 C.ar         1    LIG   0.0000
  26 O26          5.4102     3.2537    -3.4735 O.3          1    LIG   0.0000
  27 H            3.4760    -3.8876    -0.0076 H            1    LIG   0.0000
  28 H            2.6204    -2.8793    -0.9657 H            1    LIG   0.0000
  29 H            4.2486    -2.9294    -1.0807 H            1    LIG   0.0000
  30 H            2.8033    -1.9646     1.2253 H            1    LIG   0.0000
  31 H            4.8783    -2.9686     1.8227 H            1    LIG   0.0000
  32 H            5.6509    -2.0103     0.7496 H            1    LIG   0.0000
  33 H            4.9453    -1.3556     2.0687 H            1    LIG   0.0000
  34 H            1.2139    -1.6939    -0.0216 H            1    LIG   0.0000
  35 H           -0.8793    -0.5250     0.0057 H            1    LIG   0.0000
  36 H           -0.6850     5.4130    -0.8573 H            1    LIG   0.0000
  37 H           -1.2494     4.8603     0.5719 H            1    LIG   0.0000
  38 H            0.1782     4.3183    -0.0069 H            1    LIG   0.0000
  39 H           -0.6378     3.9638    -2.7705 H            1    LIG   0.0000
  40 H            0.2254     2.8691    -1.9200 H            1    LIG   0.0000
  41 H           -1.1701     2.4253    -2.6427 H            1    LIG   0.0000
  42 H            1.1516     3.0985     0.0079 H            1    LIG   0.0000
  43 H            5.0292     2.9994    -0.9967 H            1    LIG   0.0000
  44 H            1.9585     1.1807    -1.5706 H            1    LIG   0.0000
  45 H            2.0947     1.3071    -5.7164 H            1    LIG   0.0000
  46 H            4.1507     2.5298    -5.6114 H            1    LIG   0.0000
  47 H            5.8687     3.5355    -4.3164 H            1    LIG   0.0000
@<TRIPOS>BOND
   1        1        2 1
   2        2        3 1
   3        2        4 1
   4        4        5 1
   5        5        6 ar
   6        6        7 ar
   7        7        8 ar
   8        8        9 1
   9        9       10 2
  10        9       11 2
  11        9       12 1
  12       12       13 1
  13       12       14 1
  14        8       15 ar
  15       15       16 ar
  16       16        5 ar
  17       16       17 1
  18       17       18 2
  19       18       19 1
  20       19       20 ar
  21       20       21 ar
  22       21       22 1
  23       21       23 ar
  24       23       24 ar
  25       24       25 ar
  26       25       19 ar
  27       25       26 1
  28        1       27 1
  29        1       28 1
  30        1       29 1
  31        2       30 1
  32        3       31 1
  33        3       32 1
  34        3       33 1
  35        6       34 1
  36        7       35 1
  37       13       36 1
  38       13       37 1
  39       13       38 1
  40       14       39 1
  41       14       40 1
  42       14       41 1
  43       15       42 1
  44       18       43 1
  45       20       44 1
  46       23       45 1
  47       24       46 1
  48       26       47 1

@<TRIPOS>MOLECULE

  47   48
SMALL
USER_CHARGES
@<TRIPOS>ATOM
   1 C1           5.0273    -1.0918     1.8199 C.3          1    LIG   0.0000
   2 C2           4.5904    -0.0699     0.7830 C.3          1    LIG   0.0000
   3 C3           5.7803     0.3165    -0.0803 C.3          1    LIG   0.0000
   4 O4           3.5742    -0.6305    -0.0352 O.3          1    LIG   0.0000
   5 C5           2.3915     0.0207    -0.0213 C.ar         1    LIG   0.0000
   6 C6           1.1980    -0.6941    -0.0150 C.ar         1    LIG   0.0000
   7 C7          -0.0177    -0.0175     0.0006 C.ar         1    LIG   0.0000
   8 C8          -0.0197     1.3735     0.0090 C.ar         1    LIG   0.0000
   9 S9          -1.5352     2.2275     0.0286 S.o2         1    LIG   0.0000
  10 O10         -1.6314     3.0615    -1.1413 O.2          1    LIG   0.0000
  11 O11         -2.6199     1.2803     0.0333 O.2          1    LIG   0.0000
  12 N12         -1.6185     3.1556     1.3659 N.3          1    LIG   0.0000
  13 C13         -1.5204     2.3042     2.5602 C.3          1    LIG   0.0000
  14 C14         -0.5113     4.1225     1.3611 C.3          1    LIG   0.0000
  15 C15          1.1673     2.0986     0.0019 C.ar         1    LIG   0.0000
  16 C16          2.3764     1.4116    -0.0136 C.ar         1    LIG   0.0000
  17 N17          3.5801     2.1272    -0.0211 N.2          1    LIG   0.0000
  18 C18          4.1710     2.4900    -1.0611 C.2          1    LIG   0.0000
  19 C19          3.6122     2.1723    -2.3611 C.ar         1    LIG   0.0000
  20 C20          2.4172     1.4625    -2.4134 C.ar         1    LIG   0.0000
  21 C21          1.8681     1.1495    -3.6524 C.ar         1    LIG   0.0000
  22 Br22         0.1847     0.1495    -3.7420 Br           1    LIG   0.0000
  23 C23          2.4980     1.5373    -4.8308 C.ar         1    LIG   0.0000
  24 C24          3.6926     2.2474    -4.7686 C.ar         1    LIG   0.0000
  25 C25          4.2504     2.5647    -3.5337 C.ar         1    LIG   0.0000
  26 O26          5.4102     3.2537    -3.4735 O.3          1    LIG   0.0000
  27 H            5.7429    -0.6970     2.3961 H            1    LIG   0.0000
  28 H            4.2445    -1.3460     2.3878 H            1    LIG   0.0000
  29 H            5.3819    -1.9047     1.3580 H            1    LIG   0.0000
  30 H            4.2358     0.7430     1.2449 H            1    LIG   0.0000
  31 H            6.4960     0.7113     0.4959 H            1    LIG   0.0000
  32 H            6.1350    -0.4965    -0.5423 H            1    LIG   0.0000
  33 H            5.4929     0.9888    -0.7625 H            1    LIG   0.0000
  34 H            1.2139    -1.6939    -0.0216 H            1    LIG   0.0000
  35 H           -0.8793    -0.5250     0.0057 H            1    LIG   0.0000
  36 H           -1.5715     2.8736     3.3807 H            1    LIG   0.0000
  37 H           -2.2736     1.6465     2.5635 H            1    LIG   0.0000
  38 H           -0.6492     1.8133     2.5489 H            1    LIG   0.0000
  39 H           -0.5624     4.6919     2.1816 H            1    LIG   0.0000
  40 H            0.3599     3.6316     1.3498 H            1    LIG   0.0000
  41 H           -0.5780     4.7017     0.5487 H            1    LIG   0.0000
  42 H            1.1516     3.0985     0.0079 H            1    LIG   0.0000
  43 H            5.0292     2.9994    -0.9967 H            1    LIG   0.0000
  44 H            1.9585     1.1807    -1.5706 H            1    LIG   0.0000
  45 H            2.0947     1.3071    -5.7164 H            1    LIG   0.0000
  46 H            4.1507     2.5298    -5.6114 H            1    LIG   0.0000
  47 H            5.8687     3.5355    -4.3164 H            1    LIG   0.0000
@<TRIPOS>BOND
   1        1        2 1
   2        2        3 1
   3        2        4 1
   4        4        5 1
   5        5        6 ar
   6        6        7 ar
   7        7        8 ar
   8        8        9 1
   9        9       10 2
  10        9       11 2
  11        9       12 1
  12       12       13 1
  13       12       14 1
  14        8       15 ar
  15       15       16 ar
  16       16        5 ar
  17       16       17 1
  18       17       18 2
  19       18       19 1
  20       19       20 ar
  21       20       21 ar
  22       21       22 1
  23       21       23 ar
  24       23       24 ar
  25       24       25 ar
  26       25       19 ar
  27       25       26 1
  28        1       27 1
  29        1       28 1
  30        1       29 1
  31        2       30 1
  32        3       31 1
  33        3       32 1
  34        3       33 1
  35        6       34 1
  36        7       35 1
  37       13       36 1
  38       13       37 1
  39       13       38 1
  40       14       39 1
  41       14       40 1
  42       14       41 1
  43       15       42 1
  44       18       43 1
  45       20       44 1
  46       23       45 1
  47       24       46 1
  48       26       47 1

