@<TRIPOS>MOLECULE
*****
 47 48 0 0 0
SMALL
USER_CHARGES

@<TRIPOS>ATOM
      1 C1          3.2013   -2.5315   -1.4540 C.3     1  LIG1        0.0000
      2 C2          3.4915   -2.0481   -0.0424 C.3     1  LIG1        0.0000
      3 C3          4.8106   -2.6350    0.4330 C.3     1  LIG1        0.0000
      4 O4          3.5742   -0.6305   -0.0352 O.2     1  LIG1        0.0000
      5 C5          2.3915    0.0207   -0.0213 C.3     1  LIG1        0.0000
      6 C6          1.1980   -0.6941   -0.0150 C.3     1  LIG1        0.0000
      7 C7         -0.0177   -0.0175    0.0006 C.3     1  LIG1        0.0000
      8 C8         -0.0197    1.3735    0.0090 C.3     1  LIG1        0.0000
      9 S9         -1.5352    2.2275    0.0286 S.O2    1  LIG1        0.0000
     10 O10        -2.5841    1.3544   -0.4309 O.2     1  LIG1        0.0000
     11 O11        -1.8248    2.6605    1.3711 O.2     1  LIG1        0.0000
     12 N12        -1.4400    3.5257   -0.9524 N.3     1  LIG1        0.0000
     13 C13        -0.7434    4.6165   -0.2555 C.3     1  LIG1        0.0000
     14 C14        -0.6962    3.1673   -2.1686 C.3     1  LIG1        0.0000
     15 C15         1.1673    2.0986    0.0019 C.3     1  LIG1        0.0000
     16 C16         2.3764    1.4116   -0.0136 C.3     1  LIG1        0.0000
     17 N17         3.5801    2.1272   -0.0211 N.2     1  LIG1        0.0000
     18 C18         4.1907    2.4787    1.0114 C.2     1  LIG1        0.0000
     19 C19         3.6567    2.1467    2.3182 C.3     1  LIG1        0.0000
     20 C20         2.4627    1.4364    2.3854 C.3     1  LIG1        0.0000
     21 C21         1.9369    1.1103    3.6312 C.3     1  LIG1        0.0000
     22 Br22        0.2551    0.1098    3.7418 Br      1  LIG1        0.0000
     23 C23         2.5894    1.4849    4.8015 C.3     1  LIG1        0.0000
     24 C24         3.7833    2.1947    4.7244 C.3     1  LIG1        0.0000
     25 C25         4.3171    2.5263    3.4827 C.3     1  LIG1        0.0000
     26 O26         5.4759    3.2156    3.4080 O.2     1  LIG1        0.0000
     27 H           3.1431   -3.5298   -1.4591 H       1  LIG1        0.0000
     28 H           2.3335   -2.1454   -1.7668 H       1  LIG1        0.0000
     29 H           3.9365   -2.2374   -2.0648 H       1  LIG1        0.0000
     30 H           2.7564   -2.3422    0.5684 H       1  LIG1        0.0000
     31 H           4.7523   -3.6333    0.4279 H       1  LIG1        0.0000
     32 H           5.5457   -2.3409   -0.1778 H       1  LIG1        0.0000
     33 H           5.0015   -2.3169    1.3616 H       1  LIG1        0.0000
     34 H           1.2139   -1.6939   -0.0216 H       1  LIG1        0.0000
     35 H          -0.8793   -0.5250    0.0057 H       1  LIG1        0.0000
     36 H          -0.6850    5.4130   -0.8573 H       1  LIG1        0.0000
     37 H          -1.2494    4.8603    0.5719 H       1  LIG1        0.0000
     38 H           0.1782    4.3183   -0.0069 H       1  LIG1        0.0000
     39 H          -0.6378    3.9638   -2.7705 H       1  LIG1        0.0000
     40 H           0.2254    2.8691   -1.9200 H       1  LIG1        0.0000
     41 H          -1.1701    2.4253   -2.6427 H       1  LIG1        0.0000
     42 H           1.1516    3.0985    0.0079 H       1  LIG1        0.0000
     43 H           5.0476    2.9888    0.9363 H       1  LIG1        0.0000
     44 H           1.9882    1.1635    1.5485 H       1  LIG1        0.0000
     45 H           2.2027    1.2454    5.6921 H       1  LIG1        0.0000
     46 H           4.2581    2.4668    5.5614 H       1  LIG1        0.0000
     47 H           5.9503    3.4883    4.2450 H       1  LIG1        0.0000
@<TRIPOS>BOND
     1     1     2    1
     2     2     3    1
     3     2     4    1
     4     4     5    1
     5     5     6   ar
     6     6     7   ar
     7     7     8   ar
     8     8     9    1
     9     9    10    2
    10     9    11    2
    11     9    12    1
    12    12    13    1
    13    12    14    1
    14     8    15   ar
    15    15    16   ar
    16    16     5   ar
    17    16    17    1
    18    17    18    2
    19    18    19    1
    20    19    20   ar
    21    20    21   ar
    22    21    22    1
    23    21    23   ar
    24    23    24   ar
    25    24    25   ar
    26    25    19   ar
    27    25    26    1
    28     1    27    1
    29     1    28    1
    30     1    29    1
    31     2    30    1
    32     3    31    1
    33     3    32    1
    34     3    33    1
    35     6    34    1
    36     7    35    1
    37    13    36    1
    38    13    37    1
    39    13    38    1
    40    14    39    1
    41    14    40    1
    42    14    41    1
    43    15    42    1
    44    18    43    1
    45    20    44    1
    46    23    45    1
    47    24    46    1
    48    26    47    1
