@<TRIPOS>MOLECULE
*****
 47 48 0 0 0
SMALL
USER_CHARGES

@<TRIPOS>ATOM
      1 C1          4.8021   -2.6295   -0.5472 C.3     1  LIG1        0.0000
      2 C2          3.4915   -2.0481   -0.0424 C.3     1  LIG1        0.0000
      3 C3          3.2259   -2.5473    1.3684 C.3     1  LIG1        0.0000
      4 O4          3.5742   -0.6305   -0.0352 O.2     1  LIG1        0.0000
      5 C5          2.3915    0.0207   -0.0213 C.3     1  LIG1        0.0000
      6 C6          1.1980   -0.6941   -0.0150 C.3     1  LIG1        0.0000
      7 C7         -0.0177   -0.0175    0.0006 C.3     1  LIG1        0.0000
      8 C8         -0.0197    1.3735    0.0090 C.3     1  LIG1        0.0000
      9 S9         -1.5352    2.2275    0.0286 S.O2    1  LIG1        0.0000
     10 O10        -2.5241    1.4347    0.7122 O.2     1  LIG1        0.0000
     11 O11        -1.3696    3.4833    0.7134 O.2     1  LIG1        0.0000
     12 N12        -2.0232    2.5034   -1.5019 N.3     1  LIG1        0.0000
     13 C13        -1.0138    3.3126   -2.1998 C.3     1  LIG1        0.0000
     14 C14        -2.1923    1.2213   -2.2010 C.3     1  LIG1        0.0000
     15 C15         1.1673    2.0986    0.0019 C.3     1  LIG1        0.0000
     16 C16         2.3764    1.4116   -0.0136 C.3     1  LIG1        0.0000
     17 N17         3.5801    2.1272   -0.0211 N.2     1  LIG1        0.0000
     18 C18         4.1907    2.4787    1.0114 C.2     1  LIG1        0.0000
     19 C19         3.6567    2.1467    2.3182 C.3     1  LIG1        0.0000
     20 C20         2.3966    2.6259    2.6606 C.3     1  LIG1        0.0000
     21 C21         1.8702    2.3167    3.9104 C.3     1  LIG1        0.0000
     22 Br22        0.0959    2.9851    4.4072 Br      1  LIG1        0.0000
     23 C23         2.5865    1.5382    4.8139 C.3     1  LIG1        0.0000
     24 C24         3.8459    1.0629    4.4625 C.3     1  LIG1        0.0000
     25 C25         4.3815    1.3674    3.2146 C.3     1  LIG1        0.0000
     26 O26         5.6041    0.9062    2.8737 O.2     1  LIG1        0.0000
     27 H           4.7438   -3.6278   -0.5523 H       1  LIG1        0.0000
     28 H           4.9768   -2.3011   -1.4755 H       1  LIG1        0.0000
     29 H           5.5477   -2.3422    0.0539 H       1  LIG1        0.0000
     30 H           2.7459   -2.3354   -0.6436 H       1  LIG1        0.0000
     31 H           3.1676   -3.5456    1.3634 H       1  LIG1        0.0000
     32 H           3.9715   -2.2599    1.9696 H       1  LIG1        0.0000
     33 H           2.3637   -2.1648    1.7006 H       1  LIG1        0.0000
     34 H           1.2139   -1.6939   -0.0216 H       1  LIG1        0.0000
     35 H          -0.8793   -0.5250    0.0057 H       1  LIG1        0.0000
     36 H          -1.3132    3.4819   -3.1388 H       1  LIG1        0.0000
     37 H          -0.8988    4.1848   -1.7242 H       1  LIG1        0.0000
     38 H          -0.1426    2.8217   -2.2111 H       1  LIG1        0.0000
     39 H          -2.4917    1.3906   -3.1400 H       1  LIG1        0.0000
     40 H          -1.3211    0.7304   -2.2123 H       1  LIG1        0.0000
     41 H          -2.8790    0.6708   -1.7263 H       1  LIG1        0.0000
     42 H           1.1516    3.0985    0.0079 H       1  LIG1        0.0000
     43 H           5.0476    2.9888    0.9363 H       1  LIG1        0.0000
     44 H           1.8757    3.1858    2.0163 H       1  LIG1        0.0000
     45 H           2.1988    1.3218    5.7099 H       1  LIG1        0.0000
     46 H           4.3663    0.5023    5.1066 H       1  LIG1        0.0000
     47 H           6.1248    0.3462    3.5181 H       1  LIG1        0.0000
@<TRIPOS>BOND
     1     1     2    1
     2     2     3    1
     3     2     4    1
     4     4     5    1
     5     5     6   ar
     6     6     7   ar
     7     7     8   ar
     8     8     9    1
     9     9    10    2
    10     9    11    2
    11     9    12    1
    12    12    13    1
    13    12    14    1
    14     8    15   ar
    15    15    16   ar
    16    16     5   ar
    17    16    17    1
    18    17    18    2
    19    18    19    1
    20    19    20   ar
    21    20    21   ar
    22    21    22    1
    23    21    23   ar
    24    23    24   ar
    25    24    25   ar
    26    25    19   ar
    27    25    26    1
    28     1    27    1
    29     1    28    1
    30     1    29    1
    31     2    30    1
    32     3    31    1
    33     3    32    1
    34     3    33    1
    35     6    34    1
    36     7    35    1
    37    13    36    1
    38    13    37    1
    39    13    38    1
    40    14    39    1
    41    14    40    1
    42    14    41    1
    43    15    42    1
    44    18    43    1
    45    20    44    1
    46    23    45    1
    47    24    46    1
    48    26    47    1
