@<TRIPOS>MOLECULE
*****
 47 48 0 0 0
SMALL
USER_CHARGES

@<TRIPOS>ATOM
      1 C1          4.8021   -2.6295   -0.5472 C.3     1  LIG1        0.0000
      2 C2          3.4915   -2.0481   -0.0424 C.3     1  LIG1        0.0000
      3 C3          3.2259   -2.5473    1.3684 C.3     1  LIG1        0.0000
      4 O4          3.5742   -0.6305   -0.0352 O.2     1  LIG1        0.0000
      5 C5          2.3915    0.0207   -0.0213 C.3     1  LIG1        0.0000
      6 C6          1.1980   -0.6941   -0.0150 C.3     1  LIG1        0.0000
      7 C7         -0.0177   -0.0175    0.0006 C.3     1  LIG1        0.0000
      8 C8         -0.0197    1.3735    0.0090 C.3     1  LIG1        0.0000
      9 S9         -1.5352    2.2275    0.0286 S.O2    1  LIG1        0.0000
     10 O10        -1.3826    3.4915   -0.6442 O.2     1  LIG1        0.0000
     11 O11        -2.5371    1.4428   -0.6454 O.2     1  LIG1        0.0000
     12 N12        -1.9938    2.4850    1.5714 N.3     1  LIG1        0.0000
     13 C13        -2.1495    1.1946    2.2582 C.3     1  LIG1        0.0000
     14 C14        -0.9710    3.2860    2.2594 C.3     1  LIG1        0.0000
     15 C15         1.1673    2.0986    0.0019 C.3     1  LIG1        0.0000
     16 C16         2.3764    1.4116   -0.0136 C.3     1  LIG1        0.0000
     17 N17         3.5801    2.1272   -0.0211 N.2     1  LIG1        0.0000
     18 C18         4.1710    2.4900   -1.0611 C.2     1  LIG1        0.0000
     19 C19         3.6122    2.1723   -2.3611 C.3     1  LIG1        0.0000
     20 C20         3.4280    0.8346   -2.6945 C.3     1  LIG1        0.0000
     21 C21         2.8934    0.5129   -3.9376 C.3     1  LIG1        0.0000
     22 Br22        2.6283   -1.3678   -4.4216 Br      1  LIG1        0.0000
     23 C23         2.5433    1.5092   -4.8434 C.3     1  LIG1        0.0000
     24 C24         2.7307    2.8445   -4.5010 C.3     1  LIG1        0.0000
     25 C25         3.2656    3.1764   -3.2599 C.3     1  LIG1        0.0000
     26 O26         3.4477    4.4727   -2.9278 O.2     1  LIG1        0.0000
     27 H           4.7438   -3.6278   -0.5523 H       1  LIG1        0.0000
     28 H           4.9768   -2.3011   -1.4755 H       1  LIG1        0.0000
     29 H           5.5477   -2.3422    0.0539 H       1  LIG1        0.0000
     30 H           2.7459   -2.3354   -0.6436 H       1  LIG1        0.0000
     31 H           3.1676   -3.5456    1.3634 H       1  LIG1        0.0000
     32 H           3.9715   -2.2599    1.9696 H       1  LIG1        0.0000
     33 H           2.3637   -2.1648    1.7006 H       1  LIG1        0.0000
     34 H           1.2139   -1.6939   -0.0216 H       1  LIG1        0.0000
     35 H          -0.8793   -0.5250    0.0057 H       1  LIG1        0.0000
     36 H          -2.4309    1.3526    3.2047 H       1  LIG1        0.0000
     37 H          -2.8453    0.6498    1.7902 H       1  LIG1        0.0000
     38 H          -1.2784    0.7037    2.2469 H       1  LIG1        0.0000
     39 H          -1.2524    3.4439    3.2059 H       1  LIG1        0.0000
     40 H          -0.0999    2.7951    2.2481 H       1  LIG1        0.0000
     41 H          -0.8651    4.1637    1.7922 H       1  LIG1        0.0000
     42 H           1.1516    3.0985    0.0079 H       1  LIG1        0.0000
     43 H           5.0292    2.9994   -0.9967 H       1  LIG1        0.0000
     44 H           3.6770    0.1130   -2.0484 H       1  LIG1        0.0000
     45 H           2.1597    1.2672   -5.7346 H       1  LIG1        0.0000
     46 H           2.4809    3.5660   -5.1468 H       1  LIG1        0.0000
     47 H           3.1985    5.1941   -3.5739 H       1  LIG1        0.0000
@<TRIPOS>BOND
     1     1     2    1
     2     2     3    1
     3     2     4    1
     4     4     5    1
     5     5     6   ar
     6     6     7   ar
     7     7     8   ar
     8     8     9    1
     9     9    10    2
    10     9    11    2
    11     9    12    1
    12    12    13    1
    13    12    14    1
    14     8    15   ar
    15    15    16   ar
    16    16     5   ar
    17    16    17    1
    18    17    18    2
    19    18    19    1
    20    19    20   ar
    21    20    21   ar
    22    21    22    1
    23    21    23   ar
    24    23    24   ar
    25    24    25   ar
    26    25    19   ar
    27    25    26    1
    28     1    27    1
    29     1    28    1
    30     1    29    1
    31     2    30    1
    32     3    31    1
    33     3    32    1
    34     3    33    1
    35     6    34    1
    36     7    35    1
    37    13    36    1
    38    13    37    1
    39    13    38    1
    40    14    39    1
    41    14    40    1
    42    14    41    1
    43    15    42    1
    44    18    43    1
    45    20    44    1
    46    23    45    1
    47    24    46    1
    48    26    47    1
