@<TRIPOS>MOLECULE

  57   61
SMALL
USER_CHARGES
@<TRIPOS>ATOM
   1 C1           5.0560     1.0113     4.5083 C.3          1    LIG   0.0000
   2 C2           3.5384     1.0283     4.5786 C.2          1    LIG   0.0000
   3 O3           2.7998     1.0404     5.6584 O.2          1    LIG   0.0000
   4 C4           1.5232     1.0572     5.3424 C.2          1    LIG   0.0000
   5 C5           1.4317     1.0468     3.9845 C.2          1    LIG   0.0000
   6 C6           2.7476     1.0316     3.4784 C.2          1    LIG   0.0000
   7 C7           3.1579     1.0164     2.0890 C.2          1    LIG   0.0000
   8 N8           4.3853     1.0024     1.6426 N.2          1    LIG   0.0000
   9 N9           4.3778     0.9881     0.3223 N.2          1    LIG   0.0000
  10 C10          3.1380     0.9839    -0.1034 C.2          1    LIG   0.0000
  11 S11          2.6076     0.9568    -1.7597 S.3          1    LIG   0.0000
  12 C12          0.8049     0.9640    -1.5971 C.3          1    LIG   0.0000
  13 C13          0.1715     0.9418    -2.9786 C.2          1    LIG   0.0000
  14 O14          0.8951     0.9226    -3.9977 O.co2        1    LIG   0.0000
  15 O15         -1.0332     0.9428    -3.0920 O.co2        1    LIG  -1.0000
  16 N16          2.3502     1.0000     1.0000 N.pl3        1    LIG   0.0000
  17 N17          1.0000     1.0000     1.0000 N.2          1    LIG   0.0000
  18 C18          0.4916    -0.1418     1.0167 C.2          1    LIG   0.0000
  19 C19          1.3436    -1.3144     1.0339 C.2          1    LIG   0.0000
  20 C20          2.7052    -1.3223     1.0321 C.2          1    LIG   0.0000
  21 N21          3.0752    -2.6318     1.0508 N.pl3        1    LIG   0.0000
  22 C22          4.4648    -3.1099     1.0593 C.3          1    LIG   0.0000
  23 C23          4.9432    -3.2515     2.4954 C.ar         1    LIG   0.0000
  24 C24          5.5531    -2.1726     3.1271 C.ar         1    LIG   0.0000
  25 C25          5.9884    -2.3111     4.4408 C.ar         1    LIG   0.0000
  26 C26          5.8118    -3.5188     5.1093 C.ar         1    LIG   0.0000
  27 C27          5.2005    -4.5924     4.4699 C.ar         1    LIG   0.0000
  28 C28          4.7628    -4.4625     3.1557 C.ar         1    LIG   0.0000
  29 N29          2.0038    -3.3916     1.0626 N.2          1    LIG   0.0000
  30 C30          0.9173    -2.6548     1.0535 C.2          1    LIG   0.0000
  31 C31         -0.4519    -3.1327     1.0637 C.ar         1    LIG   0.0000
  32 C32         -0.7981    -4.2456     0.3045 C.ar         1    LIG   0.0000
  33 C33         -2.1137    -4.6967     0.3197 C.ar         1    LIG   0.0000
  34 C34         -3.0673    -4.0365     1.0887 C.ar         1    LIG   0.0000
  35 C35         -2.7121    -2.9245     1.8452 C.ar         1    LIG   0.0000
  36 C36         -1.3985    -2.4664     1.8351 C.ar         1    LIG   0.0000
  37 H            5.3453     1.0046     3.5511 H            1    LIG   0.0000
  38 H            5.4198     1.8255     4.9608 H            1    LIG   0.0000
  39 H            5.4018     0.1926     4.9668 H            1    LIG   0.0000
  40 H            0.7570     1.0744     5.9848 H            1    LIG   0.0000
  41 H            0.5888     1.0494     3.4464 H            1    LIG   0.0000
  42 H            0.5173     1.7896    -1.1117 H            1    LIG   0.0000
  43 H            0.5133     0.1568    -1.0837 H            1    LIG   0.0000
  44 H           -0.5029    -0.2463     1.0182 H            1    LIG   0.0000
  45 H            3.3108    -0.5267     1.0197 H            1    LIG   0.0000
  46 H            5.0459    -2.4541     0.5775 H            1    LIG   0.0000
  47 H            4.5145    -3.9980     0.6024 H            1    LIG   0.0000
  48 H            5.6772    -1.3070     2.6420 H            1    LIG   0.0000
  49 H            6.4285    -1.5425     4.9052 H            1    LIG   0.0000
  50 H            6.1257    -3.6153     6.0538 H            1    LIG   0.0000
  51 H            5.0757    -5.4578     4.9550 H            1    LIG   0.0000
  52 H            4.3234    -5.2312     2.6909 H            1    LIG   0.0000
  53 H           -0.1087    -4.7163    -0.2461 H            1    LIG   0.0000
  54 H           -2.3745    -5.4956    -0.2223 H            1    LIG   0.0000
  55 H           -4.0124    -4.3632     1.0977 H            1    LIG   0.0000
  56 H           -3.4013    -2.4541     2.3964 H            1    LIG   0.0000
  57 H           -1.1377    -1.6670     2.3764 H            1    LIG   0.0000
@<TRIPOS>BOND
   1        1        2 1
   2        2        3 1
   3        3        4 1
   4        4        5 2
   5        5        6 1
   6        6        2 2
   7        6        7 1
   8        7        8 2
   9        8        9 1
  10        9       10 2
  11       10       11 1
  12       11       12 1
  13       12       13 1
  14       13       14 ar
  15       13       15 ar
  16       10       16 1
  17       16        7 1
  18       16       17 1
  19       17       18 2
  20       18       19 1
  21       19       20 2
  22       20       21 1
  23       21       22 1
  24       22       23 1
  25       23       24 ar
  26       24       25 ar
  27       25       26 ar
  28       26       27 ar
  29       27       28 ar
  30       28       23 ar
  31       21       29 1
  32       29       30 2
  33       30       19 1
  34       30       31 1
  35       31       32 ar
  36       32       33 ar
  37       33       34 ar
  38       34       35 ar
  39       35       36 ar
  40       36       31 ar
  41        1       37 1
  42        1       38 1
  43        1       39 1
  44        4       40 1
  45        5       41 1
  46       12       42 1
  47       12       43 1
  48       18       44 1
  49       20       45 1
  50       22       46 1
  51       22       47 1
  52       24       48 1
  53       25       49 1
  54       26       50 1
  55       27       51 1
  56       28       52 1
  57       32       53 1
  58       33       54 1
  59       34       55 1
  60       35       56 1
  61       36       57 1

@<TRIPOS>MOLECULE

  57   61
SMALL
USER_CHARGES
@<TRIPOS>ATOM
   1 C1           5.0560     1.0113     4.5083 C.3          1    LIG   0.0000
   2 C2           3.5384     1.0283     4.5786 C.2          1    LIG   0.0000
   3 O3           2.7998     1.0404     5.6584 O.2          1    LIG   0.0000
   4 C4           1.5232     1.0572     5.3424 C.2          1    LIG   0.0000
   5 C5           1.4317     1.0468     3.9845 C.2          1    LIG   0.0000
   6 C6           2.7476     1.0316     3.4784 C.2          1    LIG   0.0000
   7 C7           3.1579     1.0164     2.0890 C.2          1    LIG   0.0000
   8 N8           4.3853     1.0024     1.6426 N.2          1    LIG   0.0000
   9 N9           4.3778     0.9881     0.3223 N.2          1    LIG   0.0000
  10 C10          3.1380     0.9839    -0.1034 C.2          1    LIG   0.0000
  11 S11          2.6076     0.9568    -1.7597 S.3          1    LIG   0.0000
  12 C12          0.8049     0.9640    -1.5971 C.3          1    LIG   0.0000
  13 C13          0.1715     0.9418    -2.9786 C.2          1    LIG   0.0000
  14 O14          0.8951     0.9226    -3.9977 O.co2        1    LIG   0.0000
  15 O15         -1.0332     0.9428    -3.0920 O.co2        1    LIG  -1.0000
  16 N16          2.3502     1.0000     1.0000 N.pl3        1    LIG   0.0000
  17 N17          1.0000     1.0000     1.0000 N.2          1    LIG   0.0000
  18 C18          0.4916    -0.1418     1.0167 C.2          1    LIG   0.0000
  19 C19          1.3436    -1.3144     1.0339 C.2          1    LIG   0.0000
  20 C20          2.7052    -1.3223     1.0321 C.2          1    LIG   0.0000
  21 N21          3.0752    -2.6318     1.0508 N.pl3        1    LIG   0.0000
  22 C22          4.4648    -3.1099     1.0593 C.3          1    LIG   0.0000
  23 C23          4.9448    -3.2981    -0.3708 C.ar         1    LIG   0.0000
  24 C24          4.7686    -4.5262    -0.9998 C.ar         1    LIG   0.0000
  25 C25          5.2114    -4.6899    -2.3082 C.ar         1    LIG   0.0000
  26 C26          5.8226    -3.6318    -2.9739 C.ar         1    LIG   0.0000
  27 C27          5.9944    -2.4070    -2.3372 C.ar         1    LIG   0.0000
  28 C28          5.5550    -2.2350    -1.0284 C.ar         1    LIG   0.0000
  29 N29          2.0038    -3.3916     1.0626 N.2          1    LIG   0.0000
  30 C30          0.9173    -2.6548     1.0535 C.2          1    LIG   0.0000
  31 C31         -0.4519    -3.1327     1.0637 C.ar         1    LIG   0.0000
  32 C32         -0.7981    -4.2456     0.3045 C.ar         1    LIG   0.0000
  33 C33         -2.1137    -4.6967     0.3197 C.ar         1    LIG   0.0000
  34 C34         -3.0673    -4.0365     1.0887 C.ar         1    LIG   0.0000
  35 C35         -2.7121    -2.9245     1.8452 C.ar         1    LIG   0.0000
  36 C36         -1.3985    -2.4664     1.8351 C.ar         1    LIG   0.0000
  37 H            5.3453     1.0046     3.5511 H            1    LIG   0.0000
  38 H            5.4198     1.8255     4.9608 H            1    LIG   0.0000
  39 H            5.4018     0.1926     4.9668 H            1    LIG   0.0000
  40 H            0.7570     1.0744     5.9848 H            1    LIG   0.0000
  41 H            0.5888     1.0494     3.4464 H            1    LIG   0.0000
  42 H            0.5173     1.7896    -1.1117 H            1    LIG   0.0000
  43 H            0.5133     0.1568    -1.0837 H            1    LIG   0.0000
  44 H           -0.5029    -0.2463     1.0182 H            1    LIG   0.0000
  45 H            3.3108    -0.5267     1.0197 H            1    LIG   0.0000
  46 H            4.5140    -3.9827     1.5451 H            1    LIG   0.0000
  47 H            5.0454    -2.4387     1.5202 H            1    LIG   0.0000
  48 H            4.3285    -5.2831    -0.5166 H            1    LIG   0.0000
  49 H            5.0904    -5.5683    -2.7705 H            1    LIG   0.0000
  50 H            6.1399    -3.7525    -3.9145 H            1    LIG   0.0000
  51 H            6.4339    -1.6498    -2.8205 H            1    LIG   0.0000
  52 H            5.6765    -1.3570    -0.5656 H            1    LIG   0.0000
  53 H           -0.1087    -4.7163    -0.2461 H            1    LIG   0.0000
  54 H           -2.3745    -5.4956    -0.2223 H            1    LIG   0.0000
  55 H           -4.0124    -4.3632     1.0977 H            1    LIG   0.0000
  56 H           -3.4013    -2.4541     2.3964 H            1    LIG   0.0000
  57 H           -1.1377    -1.6670     2.3764 H            1    LIG   0.0000
@<TRIPOS>BOND
   1        1        2 1
   2        2        3 1
   3        3        4 1
   4        4        5 2
   5        5        6 1
   6        6        2 2
   7        6        7 1
   8        7        8 2
   9        8        9 1
  10        9       10 2
  11       10       11 1
  12       11       12 1
  13       12       13 1
  14       13       14 ar
  15       13       15 ar
  16       10       16 1
  17       16        7 1
  18       16       17 1
  19       17       18 2
  20       18       19 1
  21       19       20 2
  22       20       21 1
  23       21       22 1
  24       22       23 1
  25       23       24 ar
  26       24       25 ar
  27       25       26 ar
  28       26       27 ar
  29       27       28 ar
  30       28       23 ar
  31       21       29 1
  32       29       30 2
  33       30       19 1
  34       30       31 1
  35       31       32 ar
  36       32       33 ar
  37       33       34 ar
  38       34       35 ar
  39       35       36 ar
  40       36       31 ar
  41        1       37 1
  42        1       38 1
  43        1       39 1
  44        4       40 1
  45        5       41 1
  46       12       42 1
  47       12       43 1
  48       18       44 1
  49       20       45 1
  50       22       46 1
  51       22       47 1
  52       24       48 1
  53       25       49 1
  54       26       50 1
  55       27       51 1
  56       28       52 1
  57       32       53 1
  58       33       54 1
  59       34       55 1
  60       35       56 1
  61       36       57 1

@<TRIPOS>MOLECULE

  57   61
SMALL
USER_CHARGES
@<TRIPOS>ATOM
   1 C1           5.0560     1.0113     4.5083 C.3          1    LIG   0.0000
   2 C2           3.5384     1.0283     4.5786 C.2          1    LIG   0.0000
   3 O3           2.7998     1.0404     5.6584 O.2          1    LIG   0.0000
   4 C4           1.5232     1.0572     5.3424 C.2          1    LIG   0.0000
   5 C5           1.4317     1.0468     3.9845 C.2          1    LIG   0.0000
   6 C6           2.7476     1.0316     3.4784 C.2          1    LIG   0.0000
   7 C7           3.1579     1.0164     2.0890 C.2          1    LIG   0.0000
   8 N8           4.3853     1.0024     1.6426 N.2          1    LIG   0.0000
   9 N9           4.3778     0.9881     0.3223 N.2          1    LIG   0.0000
  10 C10          3.1380     0.9839    -0.1034 C.2          1    LIG   0.0000
  11 S11          2.6076     0.9568    -1.7597 S.3          1    LIG   0.0000
  12 C12          4.1694     0.9373    -2.6742 C.3          1    LIG   0.0000
  13 C13          3.8823     0.9125    -4.1667 C.2          1    LIG   0.0000
  14 O14          2.7013     0.9084    -4.5760 O.co2        1    LIG   0.0000
  15 O15          4.7971     0.8967    -4.9585 O.co2        1    LIG  -1.0000
  16 N16          2.3502     1.0000     1.0000 N.pl3        1    LIG   0.0000
  17 N17          1.0000     1.0000     1.0000 N.2          1    LIG   0.0000
  18 C18          0.4916    -0.1418     1.0167 C.2          1    LIG   0.0000
  19 C19          1.3436    -1.3144     1.0339 C.2          1    LIG   0.0000
  20 C20          2.7052    -1.3223     1.0321 C.2          1    LIG   0.0000
  21 N21          3.0752    -2.6318     1.0508 N.pl3        1    LIG   0.0000
  22 C22          4.4648    -3.1099     1.0593 C.3          1    LIG   0.0000
  23 C23          4.9448    -3.2981    -0.3708 C.ar         1    LIG   0.0000
  24 C24          4.7686    -4.5262    -0.9998 C.ar         1    LIG   0.0000
  25 C25          5.2114    -4.6899    -2.3082 C.ar         1    LIG   0.0000
  26 C26          5.8226    -3.6318    -2.9739 C.ar         1    LIG   0.0000
  27 C27          5.9944    -2.4070    -2.3372 C.ar         1    LIG   0.0000
  28 C28          5.5550    -2.2350    -1.0284 C.ar         1    LIG   0.0000
  29 N29          2.0038    -3.3916     1.0626 N.2          1    LIG   0.0000
  30 C30          0.9173    -2.6548     1.0535 C.2          1    LIG   0.0000
  31 C31         -0.4519    -3.1327     1.0637 C.ar         1    LIG   0.0000
  32 C32         -0.7981    -4.2456     0.3045 C.ar         1    LIG   0.0000
  33 C33         -2.1137    -4.6967     0.3197 C.ar         1    LIG   0.0000
  34 C34         -3.0673    -4.0365     1.0887 C.ar         1    LIG   0.0000
  35 C35         -2.7121    -2.9245     1.8452 C.ar         1    LIG   0.0000
  36 C36         -1.3985    -2.4664     1.8351 C.ar         1    LIG   0.0000
  37 H            5.3453     1.0046     3.5511 H            1    LIG   0.0000
  38 H            5.4198     1.8255     4.9608 H            1    LIG   0.0000
  39 H            5.4018     0.1926     4.9668 H            1    LIG   0.0000
  40 H            0.7570     1.0744     5.9848 H            1    LIG   0.0000
  41 H            0.5888     1.0494     3.4464 H            1    LIG   0.0000
  42 H            4.6933     0.1238    -2.4220 H            1    LIG   0.0000
  43 H            4.6972     1.7565    -2.4499 H            1    LIG   0.0000
  44 H           -0.5029    -0.2463     1.0182 H            1    LIG   0.0000
  45 H            3.3108    -0.5267     1.0197 H            1    LIG   0.0000
  46 H            4.5140    -3.9827     1.5451 H            1    LIG   0.0000
  47 H            5.0454    -2.4387     1.5202 H            1    LIG   0.0000
  48 H            4.3285    -5.2831    -0.5166 H            1    LIG   0.0000
  49 H            5.0904    -5.5683    -2.7705 H            1    LIG   0.0000
  50 H            6.1399    -3.7525    -3.9145 H            1    LIG   0.0000
  51 H            6.4339    -1.6498    -2.8205 H            1    LIG   0.0000
  52 H            5.6765    -1.3570    -0.5656 H            1    LIG   0.0000
  53 H           -0.1087    -4.7163    -0.2461 H            1    LIG   0.0000
  54 H           -2.3745    -5.4956    -0.2223 H            1    LIG   0.0000
  55 H           -4.0124    -4.3632     1.0977 H            1    LIG   0.0000
  56 H           -3.4013    -2.4541     2.3964 H            1    LIG   0.0000
  57 H           -1.1377    -1.6670     2.3764 H            1    LIG   0.0000
@<TRIPOS>BOND
   1        1        2 1
   2        2        3 1
   3        3        4 1
   4        4        5 2
   5        5        6 1
   6        6        2 2
   7        6        7 1
   8        7        8 2
   9        8        9 1
  10        9       10 2
  11       10       11 1
  12       11       12 1
  13       12       13 1
  14       13       14 ar
  15       13       15 ar
  16       10       16 1
  17       16        7 1
  18       16       17 1
  19       17       18 2
  20       18       19 1
  21       19       20 2
  22       20       21 1
  23       21       22 1
  24       22       23 1
  25       23       24 ar
  26       24       25 ar
  27       25       26 ar
  28       26       27 ar
  29       27       28 ar
  30       28       23 ar
  31       21       29 1
  32       29       30 2
  33       30       19 1
  34       30       31 1
  35       31       32 ar
  36       32       33 ar
  37       33       34 ar
  38       34       35 ar
  39       35       36 ar
  40       36       31 ar
  41        1       37 1
  42        1       38 1
  43        1       39 1
  44        4       40 1
  45        5       41 1
  46       12       42 1
  47       12       43 1
  48       18       44 1
  49       20       45 1
  50       22       46 1
  51       22       47 1
  52       24       48 1
  53       25       49 1
  54       26       50 1
  55       27       51 1
  56       28       52 1
  57       32       53 1
  58       33       54 1
  59       34       55 1
  60       35       56 1
  61       36       57 1

@<TRIPOS>MOLECULE

  57   61
SMALL
USER_CHARGES
@<TRIPOS>ATOM
   1 C1           1.4778     3.2167     3.4276 C.3          1    LIG   0.0000
   2 C2           2.0119     1.9728     4.1175 C.2          1    LIG   0.0000
   3 O3           1.8521     1.6377     5.3720 O.2          1    LIG   0.0000
   4 C4           2.4487     0.4925     5.6219 C.2          1    LIG   0.0000
   5 C5           3.0330     0.0686     4.4680 C.2          1    LIG   0.0000
   6 C6           2.7476     1.0316     3.4784 C.2          1    LIG   0.0000
   7 C7           3.1579     1.0164     2.0890 C.2          1    LIG   0.0000
   8 N8           4.3853     1.0024     1.6426 N.2          1    LIG   0.0000
   9 N9           4.3778     0.9881     0.3223 N.2          1    LIG   0.0000
  10 C10          3.1380     0.9839    -0.1034 C.2          1    LIG   0.0000
  11 S11          2.6076     0.9568    -1.7597 S.3          1    LIG   0.0000
  12 C12          2.4914     2.7168    -2.1659 C.3          1    LIG   0.0000
  13 C13          1.3226     3.3340    -1.4154 C.2          1    LIG   0.0000
  14 O14          0.6213     2.6266    -0.6601 O.co2        1    LIG   0.0000
  15 O15          1.0709     4.5099    -1.5490 O.co2        1    LIG  -1.0000
  16 N16          2.3502     1.0000     1.0000 N.pl3        1    LIG   0.0000
  17 N17          1.0000     1.0000     1.0000 N.2          1    LIG   0.0000
  18 C18          0.4916    -0.1418     1.0167 C.2          1    LIG   0.0000
  19 C19          1.3436    -1.3144     1.0339 C.2          1    LIG   0.0000
  20 C20          2.7052    -1.3223     1.0321 C.2          1    LIG   0.0000
  21 N21          3.0752    -2.6318     1.0508 N.pl3        1    LIG   0.0000
  22 C22          4.4648    -3.1099     1.0593 C.3          1    LIG   0.0000
  23 C23          4.9432    -3.2515     2.4954 C.ar         1    LIG   0.0000
  24 C24          5.5531    -2.1726     3.1271 C.ar         1    LIG   0.0000
  25 C25          5.9884    -2.3111     4.4408 C.ar         1    LIG   0.0000
  26 C26          5.8118    -3.5188     5.1093 C.ar         1    LIG   0.0000
  27 C27          5.2005    -4.5924     4.4699 C.ar         1    LIG   0.0000
  28 C28          4.7628    -4.4625     3.1557 C.ar         1    LIG   0.0000
  29 N29          2.0038    -3.3916     1.0626 N.2          1    LIG   0.0000
  30 C30          0.9173    -2.6548     1.0535 C.2          1    LIG   0.0000
  31 C31         -0.4519    -3.1327     1.0637 C.ar         1    LIG   0.0000
  32 C32         -0.7981    -4.2456     0.3045 C.ar         1    LIG   0.0000
  33 C33         -2.1137    -4.6967     0.3197 C.ar         1    LIG   0.0000
  34 C34         -3.0673    -4.0365     1.0887 C.ar         1    LIG   0.0000
  35 C35         -2.7121    -2.9245     1.8452 C.ar         1    LIG   0.0000
  36 C36         -1.3985    -2.4664     1.8351 C.ar         1    LIG   0.0000
  37 H            1.7549     3.2098     2.4668 H            1    LIG   0.0000
  38 H            0.4796     3.2280     3.4866 H            1    LIG   0.0000
  39 H            1.8475     4.0309     3.8753 H            1    LIG   0.0000
  40 H            2.4694     0.0182     6.5020 H            1    LIG   0.0000
  41 H            3.5652    -0.7691     4.3451 H            1    LIG   0.0000
  42 H            2.3491     2.8231    -3.1500 H            1    LIG   0.0000
  43 H            3.3386     3.1769    -1.9000 H            1    LIG   0.0000
  44 H           -0.5029    -0.2463     1.0182 H            1    LIG   0.0000
  45 H            3.3108    -0.5267     1.0197 H            1    LIG   0.0000
  46 H            5.0459    -2.4541     0.5775 H            1    LIG   0.0000
  47 H            4.5145    -3.9980     0.6024 H            1    LIG   0.0000
  48 H            5.6772    -1.3070     2.6420 H            1    LIG   0.0000
  49 H            6.4285    -1.5425     4.9052 H            1    LIG   0.0000
  50 H            6.1257    -3.6153     6.0538 H            1    LIG   0.0000
  51 H            5.0757    -5.4578     4.9550 H            1    LIG   0.0000
  52 H            4.3234    -5.2312     2.6909 H            1    LIG   0.0000
  53 H           -0.1087    -4.7163    -0.2461 H            1    LIG   0.0000
  54 H           -2.3745    -5.4956    -0.2223 H            1    LIG   0.0000
  55 H           -4.0124    -4.3632     1.0977 H            1    LIG   0.0000
  56 H           -3.4013    -2.4541     2.3964 H            1    LIG   0.0000
  57 H           -1.1377    -1.6670     2.3764 H            1    LIG   0.0000
@<TRIPOS>BOND
   1        1        2 1
   2        2        3 1
   3        3        4 1
   4        4        5 2
   5        5        6 1
   6        6        2 2
   7        6        7 1
   8        7        8 2
   9        8        9 1
  10        9       10 2
  11       10       11 1
  12       11       12 1
  13       12       13 1
  14       13       14 ar
  15       13       15 ar
  16       10       16 1
  17       16        7 1
  18       16       17 1
  19       17       18 2
  20       18       19 1
  21       19       20 2
  22       20       21 1
  23       21       22 1
  24       22       23 1
  25       23       24 ar
  26       24       25 ar
  27       25       26 ar
  28       26       27 ar
  29       27       28 ar
  30       28       23 ar
  31       21       29 1
  32       29       30 2
  33       30       19 1
  34       30       31 1
  35       31       32 ar
  36       32       33 ar
  37       33       34 ar
  38       34       35 ar
  39       35       36 ar
  40       36       31 ar
  41        1       37 1
  42        1       38 1
  43        1       39 1
  44        4       40 1
  45        5       41 1
  46       12       42 1
  47       12       43 1
  48       18       44 1
  49       20       45 1
  50       22       46 1
  51       22       47 1
  52       24       48 1
  53       25       49 1
  54       26       50 1
  55       27       51 1
  56       28       52 1
  57       32       53 1
  58       33       54 1
  59       34       55 1
  60       35       56 1
  61       36       57 1

@<TRIPOS>MOLECULE

  57   61
SMALL
USER_CHARGES
@<TRIPOS>ATOM
   1 C1           1.4778     3.2167     3.4276 C.3          1    LIG   0.0000
   2 C2           2.0119     1.9728     4.1175 C.2          1    LIG   0.0000
   3 O3           1.8521     1.6377     5.3720 O.2          1    LIG   0.0000
   4 C4           2.4487     0.4925     5.6219 C.2          1    LIG   0.0000
   5 C5           3.0330     0.0686     4.4680 C.2          1    LIG   0.0000
   6 C6           2.7476     1.0316     3.4784 C.2          1    LIG   0.0000
   7 C7           3.1579     1.0164     2.0890 C.2          1    LIG   0.0000
   8 N8           4.3853     1.0024     1.6426 N.2          1    LIG   0.0000
   9 N9           4.3778     0.9881     0.3223 N.2          1    LIG   0.0000
  10 C10          3.1380     0.9839    -0.1034 C.2          1    LIG   0.0000
  11 S11          2.6076     0.9568    -1.7597 S.3          1    LIG   0.0000
  12 C12          2.4914     2.7168    -2.1659 C.3          1    LIG   0.0000
  13 C13          1.3226     3.3340    -1.4154 C.2          1    LIG   0.0000
  14 O14          0.6213     2.6266    -0.6601 O.co2        1    LIG   0.0000
  15 O15          1.0709     4.5099    -1.5490 O.co2        1    LIG  -1.0000
  16 N16          2.3502     1.0000     1.0000 N.pl3        1    LIG   0.0000
  17 N17          1.0000     1.0000     1.0000 N.2          1    LIG   0.0000
  18 C18          0.4916    -0.1418     1.0167 C.2          1    LIG   0.0000
  19 C19          1.3436    -1.3144     1.0339 C.2          1    LIG   0.0000
  20 C20          2.7052    -1.3223     1.0321 C.2          1    LIG   0.0000
  21 N21          3.0752    -2.6318     1.0508 N.pl3        1    LIG   0.0000
  22 C22          4.4648    -3.1099     1.0593 C.3          1    LIG   0.0000
  23 C23          4.9448    -3.2981    -0.3708 C.ar         1    LIG   0.0000
  24 C24          4.7686    -4.5262    -0.9998 C.ar         1    LIG   0.0000
  25 C25          5.2114    -4.6899    -2.3082 C.ar         1    LIG   0.0000
  26 C26          5.8226    -3.6318    -2.9739 C.ar         1    LIG   0.0000
  27 C27          5.9944    -2.4070    -2.3372 C.ar         1    LIG   0.0000
  28 C28          5.5550    -2.2350    -1.0284 C.ar         1    LIG   0.0000
  29 N29          2.0038    -3.3916     1.0626 N.2          1    LIG   0.0000
  30 C30          0.9173    -2.6548     1.0535 C.2          1    LIG   0.0000
  31 C31         -0.4519    -3.1327     1.0637 C.ar         1    LIG   0.0000
  32 C32         -0.7948    -4.2217     1.8583 C.ar         1    LIG   0.0000
  33 C33         -2.1102    -4.6738     1.8615 C.ar         1    LIG   0.0000
  34 C34         -3.0668    -4.0381     1.0758 C.ar         1    LIG   0.0000
  35 C35         -2.7150    -2.9496     0.2844 C.ar         1    LIG   0.0000
  36 C36         -1.4014    -2.4914     0.2749 C.ar         1    LIG   0.0000
  37 H            1.7549     3.2098     2.4668 H            1    LIG   0.0000
  38 H            0.4796     3.2280     3.4866 H            1    LIG   0.0000
  39 H            1.8475     4.0309     3.8753 H            1    LIG   0.0000
  40 H            2.4694     0.0182     6.5020 H            1    LIG   0.0000
  41 H            3.5652    -0.7691     4.3451 H            1    LIG   0.0000
  42 H            2.3491     2.8231    -3.1500 H            1    LIG   0.0000
  43 H            3.3386     3.1769    -1.9000 H            1    LIG   0.0000
  44 H           -0.5029    -0.2463     1.0182 H            1    LIG   0.0000
  45 H            3.3108    -0.5267     1.0197 H            1    LIG   0.0000
  46 H            4.5140    -3.9827     1.5451 H            1    LIG   0.0000
  47 H            5.0454    -2.4387     1.5202 H            1    LIG   0.0000
  48 H            4.3285    -5.2831    -0.5166 H            1    LIG   0.0000
  49 H            5.0904    -5.5683    -2.7705 H            1    LIG   0.0000
  50 H            6.1399    -3.7525    -3.9145 H            1    LIG   0.0000
  51 H            6.4339    -1.6498    -2.8205 H            1    LIG   0.0000
  52 H            5.6765    -1.3570    -0.5656 H            1    LIG   0.0000
  53 H           -0.1033    -4.6745     2.4211 H            1    LIG   0.0000
  54 H           -2.3685    -5.4559     2.4285 H            1    LIG   0.0000
  55 H           -4.0118    -4.3654     1.0802 H            1    LIG   0.0000
  56 H           -3.4066    -2.4962    -0.2779 H            1    LIG   0.0000
  57 H           -1.1427    -1.7098    -0.2926 H            1    LIG   0.0000
@<TRIPOS>BOND
   1        1        2 1
   2        2        3 1
   3        3        4 1
   4        4        5 2
   5        5        6 1
   6        6        2 2
   7        6        7 1
   8        7        8 2
   9        8        9 1
  10        9       10 2
  11       10       11 1
  12       11       12 1
  13       12       13 1
  14       13       14 ar
  15       13       15 ar
  16       10       16 1
  17       16        7 1
  18       16       17 1
  19       17       18 2
  20       18       19 1
  21       19       20 2
  22       20       21 1
  23       21       22 1
  24       22       23 1
  25       23       24 ar
  26       24       25 ar
  27       25       26 ar
  28       26       27 ar
  29       27       28 ar
  30       28       23 ar
  31       21       29 1
  32       29       30 2
  33       30       19 1
  34       30       31 1
  35       31       32 ar
  36       32       33 ar
  37       33       34 ar
  38       34       35 ar
  39       35       36 ar
  40       36       31 ar
  41        1       37 1
  42        1       38 1
  43        1       39 1
  44        4       40 1
  45        5       41 1
  46       12       42 1
  47       12       43 1
  48       18       44 1
  49       20       45 1
  50       22       46 1
  51       22       47 1
  52       24       48 1
  53       25       49 1
  54       26       50 1
  55       27       51 1
  56       28       52 1
  57       32       53 1
  58       33       54 1
  59       34       55 1
  60       35       56 1
  61       36       57 1

@<TRIPOS>MOLECULE

  57   61
SMALL
USER_CHARGES
@<TRIPOS>ATOM
   1 C1           5.0560     0.9887    -2.5083 C.3          1    LIG   0.0000
   2 C2           3.5384     0.9717    -2.5786 C.2          1    LIG   0.0000
   3 O3           2.7998     0.9596    -3.6584 O.2          1    LIG   0.0000
   4 C4           1.5232     0.9428    -3.3424 C.2          1    LIG   0.0000
   5 C5           1.4317     0.9532    -1.9845 C.2          1    LIG   0.0000
   6 C6           2.7476     0.9684    -1.4784 C.2          1    LIG   0.0000
   7 C7           3.1579     0.9836    -0.0890 C.2          1    LIG   0.0000
   8 N8           4.3853     0.9976     0.3574 N.2          1    LIG   0.0000
   9 N9           4.3778     1.0119     1.6777 N.2          1    LIG   0.0000
  10 C10          3.1380     1.0161     2.1034 C.2          1    LIG   0.0000
  11 S11          2.6076     1.0432     3.7597 S.3          1    LIG   0.0000
  12 C12          0.8049     1.0360     3.5971 C.3          1    LIG   0.0000
  13 C13          0.1715     1.0582     4.9786 C.2          1    LIG   0.0000
  14 O14          0.8951     1.0774     5.9977 O.co2        1    LIG   0.0000
  15 O15         -1.0332     1.0572     5.0920 O.co2        1    LIG  -1.0000
  16 N16          2.3502     1.0000     1.0000 N.pl3        1    LIG   0.0000
  17 N17          1.0000     1.0000     1.0000 N.2          1    LIG   0.0000
  18 C18          0.4916    -0.1418     1.0167 C.2          1    LIG   0.0000
  19 C19          1.3436    -1.3144     1.0339 C.2          1    LIG   0.0000
  20 C20          2.7052    -1.3223     1.0321 C.2          1    LIG   0.0000
  21 N21          3.0752    -2.6318     1.0508 N.pl3        1    LIG   0.0000
  22 C22          4.4648    -3.1099     1.0593 C.3          1    LIG   0.0000
  23 C23          4.9432    -3.2515     2.4954 C.ar         1    LIG   0.0000
  24 C24          5.5531    -2.1726     3.1271 C.ar         1    LIG   0.0000
  25 C25          5.9884    -2.3111     4.4408 C.ar         1    LIG   0.0000
  26 C26          5.8118    -3.5188     5.1093 C.ar         1    LIG   0.0000
  27 C27          5.2005    -4.5924     4.4699 C.ar         1    LIG   0.0000
  28 C28          4.7628    -4.4625     3.1557 C.ar         1    LIG   0.0000
  29 N29          2.0038    -3.3916     1.0626 N.2          1    LIG   0.0000
  30 C30          0.9173    -2.6548     1.0535 C.2          1    LIG   0.0000
  31 C31         -0.4519    -3.1327     1.0637 C.ar         1    LIG   0.0000
  32 C32         -0.7981    -4.2456     0.3045 C.ar         1    LIG   0.0000
  33 C33         -2.1137    -4.6967     0.3197 C.ar         1    LIG   0.0000
  34 C34         -3.0673    -4.0365     1.0887 C.ar         1    LIG   0.0000
  35 C35         -2.7121    -2.9245     1.8452 C.ar         1    LIG   0.0000
  36 C36         -1.3985    -2.4664     1.8351 C.ar         1    LIG   0.0000
  37 H            5.3453     0.9954    -1.5511 H            1    LIG   0.0000
  38 H            5.4198     0.1745    -2.9608 H            1    LIG   0.0000
  39 H            5.4018     1.8074    -2.9668 H            1    LIG   0.0000
  40 H            0.7570     0.9256    -3.9848 H            1    LIG   0.0000
  41 H            0.5888     0.9506    -1.4464 H            1    LIG   0.0000
  42 H            0.5173     0.2104     3.1117 H            1    LIG   0.0000
  43 H            0.5133     1.8432     3.0837 H            1    LIG   0.0000
  44 H           -0.5029    -0.2463     1.0182 H            1    LIG   0.0000
  45 H            3.3108    -0.5267     1.0197 H            1    LIG   0.0000
  46 H            5.0459    -2.4541     0.5775 H            1    LIG   0.0000
  47 H            4.5145    -3.9980     0.6024 H            1    LIG   0.0000
  48 H            5.6772    -1.3070     2.6420 H            1    LIG   0.0000
  49 H            6.4285    -1.5425     4.9052 H            1    LIG   0.0000
  50 H            6.1257    -3.6153     6.0538 H            1    LIG   0.0000
  51 H            5.0757    -5.4578     4.9550 H            1    LIG   0.0000
  52 H            4.3234    -5.2312     2.6909 H            1    LIG   0.0000
  53 H           -0.1087    -4.7163    -0.2461 H            1    LIG   0.0000
  54 H           -2.3745    -5.4956    -0.2223 H            1    LIG   0.0000
  55 H           -4.0124    -4.3632     1.0977 H            1    LIG   0.0000
  56 H           -3.4013    -2.4541     2.3964 H            1    LIG   0.0000
  57 H           -1.1377    -1.6670     2.3764 H            1    LIG   0.0000
@<TRIPOS>BOND
   1        1        2 1
   2        2        3 1
   3        3        4 1
   4        4        5 2
   5        5        6 1
   6        6        2 2
   7        6        7 1
   8        7        8 2
   9        8        9 1
  10        9       10 2
  11       10       11 1
  12       11       12 1
  13       12       13 1
  14       13       14 ar
  15       13       15 ar
  16       10       16 1
  17       16        7 1
  18       16       17 1
  19       17       18 2
  20       18       19 1
  21       19       20 2
  22       20       21 1
  23       21       22 1
  24       22       23 1
  25       23       24 ar
  26       24       25 ar
  27       25       26 ar
  28       26       27 ar
  29       27       28 ar
  30       28       23 ar
  31       21       29 1
  32       29       30 2
  33       30       19 1
  34       30       31 1
  35       31       32 ar
  36       32       33 ar
  37       33       34 ar
  38       34       35 ar
  39       35       36 ar
  40       36       31 ar
  41        1       37 1
  42        1       38 1
  43        1       39 1
  44        4       40 1
  45        5       41 1
  46       12       42 1
  47       12       43 1
  48       18       44 1
  49       20       45 1
  50       22       46 1
  51       22       47 1
  52       24       48 1
  53       25       49 1
  54       26       50 1
  55       27       51 1
  56       28       52 1
  57       32       53 1
  58       33       54 1
  59       34       55 1
  60       35       56 1
  61       36       57 1

@<TRIPOS>MOLECULE

  57   61
SMALL
USER_CHARGES
@<TRIPOS>ATOM
   1 C1           5.0560     0.9887    -2.5083 C.3          1    LIG   0.0000
   2 C2           3.5384     0.9717    -2.5786 C.2          1    LIG   0.0000
   3 O3           2.7998     0.9596    -3.6584 O.2          1    LIG   0.0000
   4 C4           1.5232     0.9428    -3.3424 C.2          1    LIG   0.0000
   5 C5           1.4317     0.9532    -1.9845 C.2          1    LIG   0.0000
   6 C6           2.7476     0.9684    -1.4784 C.2          1    LIG   0.0000
   7 C7           3.1579     0.9836    -0.0890 C.2          1    LIG   0.0000
   8 N8           4.3853     0.9976     0.3574 N.2          1    LIG   0.0000
   9 N9           4.3778     1.0119     1.6777 N.2          1    LIG   0.0000
  10 C10          3.1380     1.0161     2.1034 C.2          1    LIG   0.0000
  11 S11          2.6076     1.0432     3.7597 S.3          1    LIG   0.0000
  12 C12          0.8049     1.0360     3.5971 C.3          1    LIG   0.0000
  13 C13          0.1715     1.0582     4.9786 C.2          1    LIG   0.0000
  14 O14          0.8951     1.0774     5.9977 O.co2        1    LIG   0.0000
  15 O15         -1.0332     1.0572     5.0920 O.co2        1    LIG  -1.0000
  16 N16          2.3502     1.0000     1.0000 N.pl3        1    LIG   0.0000
  17 N17          1.0000     1.0000     1.0000 N.2          1    LIG   0.0000
  18 C18          0.4916    -0.1418     1.0167 C.2          1    LIG   0.0000
  19 C19          1.3436    -1.3144     1.0339 C.2          1    LIG   0.0000
  20 C20          2.7052    -1.3223     1.0321 C.2          1    LIG   0.0000
  21 N21          3.0752    -2.6318     1.0508 N.pl3        1    LIG   0.0000
  22 C22          4.4648    -3.1099     1.0593 C.3          1    LIG   0.0000
  23 C23          4.9448    -3.2981    -0.3708 C.ar         1    LIG   0.0000
  24 C24          4.7686    -4.5262    -0.9998 C.ar         1    LIG   0.0000
  25 C25          5.2114    -4.6899    -2.3082 C.ar         1    LIG   0.0000
  26 C26          5.8226    -3.6318    -2.9739 C.ar         1    LIG   0.0000
  27 C27          5.9944    -2.4070    -2.3372 C.ar         1    LIG   0.0000
  28 C28          5.5550    -2.2350    -1.0284 C.ar         1    LIG   0.0000
  29 N29          2.0038    -3.3916     1.0626 N.2          1    LIG   0.0000
  30 C30          0.9173    -2.6548     1.0535 C.2          1    LIG   0.0000
  31 C31         -0.4519    -3.1327     1.0637 C.ar         1    LIG   0.0000
  32 C32         -0.7981    -4.2456     0.3045 C.ar         1    LIG   0.0000
  33 C33         -2.1137    -4.6967     0.3197 C.ar         1    LIG   0.0000
  34 C34         -3.0673    -4.0365     1.0887 C.ar         1    LIG   0.0000
  35 C35         -2.7121    -2.9245     1.8452 C.ar         1    LIG   0.0000
  36 C36         -1.3985    -2.4664     1.8351 C.ar         1    LIG   0.0000
  37 H            5.3453     0.9954    -1.5511 H            1    LIG   0.0000
  38 H            5.4198     0.1745    -2.9608 H            1    LIG   0.0000
  39 H            5.4018     1.8074    -2.9668 H            1    LIG   0.0000
  40 H            0.7570     0.9256    -3.9848 H            1    LIG   0.0000
  41 H            0.5888     0.9506    -1.4464 H            1    LIG   0.0000
  42 H            0.5173     0.2104     3.1117 H            1    LIG   0.0000
  43 H            0.5133     1.8432     3.0837 H            1    LIG   0.0000
  44 H           -0.5029    -0.2463     1.0182 H            1    LIG   0.0000
  45 H            3.3108    -0.5267     1.0197 H            1    LIG   0.0000
  46 H            4.5140    -3.9827     1.5451 H            1    LIG   0.0000
  47 H            5.0454    -2.4387     1.5202 H            1    LIG   0.0000
  48 H            4.3285    -5.2831    -0.5166 H            1    LIG   0.0000
  49 H            5.0904    -5.5683    -2.7705 H            1    LIG   0.0000
  50 H            6.1399    -3.7525    -3.9145 H            1    LIG   0.0000
  51 H            6.4339    -1.6498    -2.8205 H            1    LIG   0.0000
  52 H            5.6765    -1.3570    -0.5656 H            1    LIG   0.0000
  53 H           -0.1087    -4.7163    -0.2461 H            1    LIG   0.0000
  54 H           -2.3745    -5.4956    -0.2223 H            1    LIG   0.0000
  55 H           -4.0124    -4.3632     1.0977 H            1    LIG   0.0000
  56 H           -3.4013    -2.4541     2.3964 H            1    LIG   0.0000
  57 H           -1.1377    -1.6670     2.3764 H            1    LIG   0.0000
@<TRIPOS>BOND
   1        1        2 1
   2        2        3 1
   3        3        4 1
   4        4        5 2
   5        5        6 1
   6        6        2 2
   7        6        7 1
   8        7        8 2
   9        8        9 1
  10        9       10 2
  11       10       11 1
  12       11       12 1
  13       12       13 1
  14       13       14 ar
  15       13       15 ar
  16       10       16 1
  17       16        7 1
  18       16       17 1
  19       17       18 2
  20       18       19 1
  21       19       20 2
  22       20       21 1
  23       21       22 1
  24       22       23 1
  25       23       24 ar
  26       24       25 ar
  27       25       26 ar
  28       26       27 ar
  29       27       28 ar
  30       28       23 ar
  31       21       29 1
  32       29       30 2
  33       30       19 1
  34       30       31 1
  35       31       32 ar
  36       32       33 ar
  37       33       34 ar
  38       34       35 ar
  39       35       36 ar
  40       36       31 ar
  41        1       37 1
  42        1       38 1
  43        1       39 1
  44        4       40 1
  45        5       41 1
  46       12       42 1
  47       12       43 1
  48       18       44 1
  49       20       45 1
  50       22       46 1
  51       22       47 1
  52       24       48 1
  53       25       49 1
  54       26       50 1
  55       27       51 1
  56       28       52 1
  57       32       53 1
  58       33       54 1
  59       34       55 1
  60       35       56 1
  61       36       57 1

@<TRIPOS>MOLECULE

  57   61
SMALL
USER_CHARGES
@<TRIPOS>ATOM
   1 C1           5.0560     0.9887    -2.5083 C.3          1    LIG   0.0000
   2 C2           3.5384     0.9717    -2.5786 C.2          1    LIG   0.0000
   3 O3           2.7998     0.9596    -3.6584 O.2          1    LIG   0.0000
   4 C4           1.5232     0.9428    -3.3424 C.2          1    LIG   0.0000
   5 C5           1.4317     0.9532    -1.9845 C.2          1    LIG   0.0000
   6 C6           2.7476     0.9684    -1.4784 C.2          1    LIG   0.0000
   7 C7           3.1579     0.9836    -0.0890 C.2          1    LIG   0.0000
   8 N8           4.3853     0.9976     0.3574 N.2          1    LIG   0.0000
   9 N9           4.3778     1.0119     1.6777 N.2          1    LIG   0.0000
  10 C10          3.1380     1.0161     2.1034 C.2          1    LIG   0.0000
  11 S11          2.6076     1.0432     3.7597 S.3          1    LIG   0.0000
  12 C12          4.1694     1.0627     4.6742 C.3          1    LIG   0.0000
  13 C13          3.8823     1.0875     6.1667 C.2          1    LIG   0.0000
  14 O14          2.7013     1.0916     6.5760 O.co2        1    LIG   0.0000
  15 O15          4.7971     1.1033     6.9585 O.co2        1    LIG  -1.0000
  16 N16          2.3502     1.0000     1.0000 N.pl3        1    LIG   0.0000
  17 N17          1.0000     1.0000     1.0000 N.2          1    LIG   0.0000
  18 C18          0.4916    -0.1418     1.0167 C.2          1    LIG   0.0000
  19 C19          1.3436    -1.3144     1.0339 C.2          1    LIG   0.0000
  20 C20          2.7052    -1.3223     1.0321 C.2          1    LIG   0.0000
  21 N21          3.0752    -2.6318     1.0508 N.pl3        1    LIG   0.0000
  22 C22          4.4648    -3.1099     1.0593 C.3          1    LIG   0.0000
  23 C23          4.9432    -3.2515     2.4954 C.ar         1    LIG   0.0000
  24 C24          5.5531    -2.1726     3.1271 C.ar         1    LIG   0.0000
  25 C25          5.9884    -2.3111     4.4408 C.ar         1    LIG   0.0000
  26 C26          5.8118    -3.5188     5.1093 C.ar         1    LIG   0.0000
  27 C27          5.2005    -4.5924     4.4699 C.ar         1    LIG   0.0000
  28 C28          4.7628    -4.4625     3.1557 C.ar         1    LIG   0.0000
  29 N29          2.0038    -3.3916     1.0626 N.2          1    LIG   0.0000
  30 C30          0.9173    -2.6548     1.0535 C.2          1    LIG   0.0000
  31 C31         -0.4519    -3.1327     1.0637 C.ar         1    LIG   0.0000
  32 C32         -0.7981    -4.2456     0.3045 C.ar         1    LIG   0.0000
  33 C33         -2.1137    -4.6967     0.3197 C.ar         1    LIG   0.0000
  34 C34         -3.0673    -4.0365     1.0887 C.ar         1    LIG   0.0000
  35 C35         -2.7121    -2.9245     1.8452 C.ar         1    LIG   0.0000
  36 C36         -1.3985    -2.4664     1.8351 C.ar         1    LIG   0.0000
  37 H            5.3453     0.9954    -1.5511 H            1    LIG   0.0000
  38 H            5.4198     0.1745    -2.9608 H            1    LIG   0.0000
  39 H            5.4018     1.8074    -2.9668 H            1    LIG   0.0000
  40 H            0.7570     0.9256    -3.9848 H            1    LIG   0.0000
  41 H            0.5888     0.9506    -1.4464 H            1    LIG   0.0000
  42 H            4.6933     1.8762     4.4220 H            1    LIG   0.0000
  43 H            4.6972     0.2435     4.4499 H            1    LIG   0.0000
  44 H           -0.5029    -0.2463     1.0182 H            1    LIG   0.0000
  45 H            3.3108    -0.5267     1.0197 H            1    LIG   0.0000
  46 H            5.0459    -2.4541     0.5775 H            1    LIG   0.0000
  47 H            4.5145    -3.9980     0.6024 H            1    LIG   0.0000
  48 H            5.6772    -1.3070     2.6420 H            1    LIG   0.0000
  49 H            6.4285    -1.5425     4.9052 H            1    LIG   0.0000
  50 H            6.1257    -3.6153     6.0538 H            1    LIG   0.0000
  51 H            5.0757    -5.4578     4.9550 H            1    LIG   0.0000
  52 H            4.3234    -5.2312     2.6909 H            1    LIG   0.0000
  53 H           -0.1087    -4.7163    -0.2461 H            1    LIG   0.0000
  54 H           -2.3745    -5.4956    -0.2223 H            1    LIG   0.0000
  55 H           -4.0124    -4.3632     1.0977 H            1    LIG   0.0000
  56 H           -3.4013    -2.4541     2.3964 H            1    LIG   0.0000
  57 H           -1.1377    -1.6670     2.3764 H            1    LIG   0.0000
@<TRIPOS>BOND
   1        1        2 1
   2        2        3 1
   3        3        4 1
   4        4        5 2
   5        5        6 1
   6        6        2 2
   7        6        7 1
   8        7        8 2
   9        8        9 1
  10        9       10 2
  11       10       11 1
  12       11       12 1
  13       12       13 1
  14       13       14 ar
  15       13       15 ar
  16       10       16 1
  17       16        7 1
  18       16       17 1
  19       17       18 2
  20       18       19 1
  21       19       20 2
  22       20       21 1
  23       21       22 1
  24       22       23 1
  25       23       24 ar
  26       24       25 ar
  27       25       26 ar
  28       26       27 ar
  29       27       28 ar
  30       28       23 ar
  31       21       29 1
  32       29       30 2
  33       30       19 1
  34       30       31 1
  35       31       32 ar
  36       32       33 ar
  37       33       34 ar
  38       34       35 ar
  39       35       36 ar
  40       36       31 ar
  41        1       37 1
  42        1       38 1
  43        1       39 1
  44        4       40 1
  45        5       41 1
  46       12       42 1
  47       12       43 1
  48       18       44 1
  49       20       45 1
  50       22       46 1
  51       22       47 1
  52       24       48 1
  53       25       49 1
  54       26       50 1
  55       27       51 1
  56       28       52 1
  57       32       53 1
  58       33       54 1
  59       34       55 1
  60       35       56 1
  61       36       57 1

@<TRIPOS>MOLECULE

  57   61
SMALL
USER_CHARGES
@<TRIPOS>ATOM
   1 C1           1.4255     3.1228    -1.4595 C.3          1    LIG   0.0000
   2 C2           1.9865     1.8804    -2.1302 C.2          1    LIG   0.0000
   3 O3           1.8273     1.5183    -3.3773 O.2          1    LIG   0.0000
   4 C4           2.4574     0.3879    -3.6122 C.2          1    LIG   0.0000
   5 C5           3.0491    -0.0063    -2.4516 C.2          1    LIG   0.0000
   6 C6           2.7476     0.9684    -1.4784 C.2          1    LIG   0.0000
   7 C7           3.1579     0.9836    -0.0890 C.2          1    LIG   0.0000
   8 N8           4.3853     0.9976     0.3574 N.2          1    LIG   0.0000
   9 N9           4.3778     1.0119     1.6777 N.2          1    LIG   0.0000
  10 C10          3.1380     1.0161     2.1034 C.2          1    LIG   0.0000
  11 S11          2.6076     1.0432     3.7597 S.3          1    LIG   0.0000
  12 C12          2.4828     2.8155     4.1054 C.3          1    LIG   0.0000
  13 C13          3.8760     3.4212     4.1555 C.2          1    LIG   0.0000
  14 O14          4.3985     3.8739     3.1141 O.co2        1    LIG   0.0000
  15 O15          4.4793     3.4652     5.2034 O.co2        1    LIG  -1.0000
  16 N16          2.3502     1.0000     1.0000 N.pl3        1    LIG   0.0000
  17 N17          1.0000     1.0000     1.0000 N.2          1    LIG   0.0000
  18 C18          0.4916    -0.1418     1.0167 C.2          1    LIG   0.0000
  19 C19          1.3436    -1.3144     1.0339 C.2          1    LIG   0.0000
  20 C20          2.7052    -1.3223     1.0321 C.2          1    LIG   0.0000
  21 N21          3.0752    -2.6318     1.0508 N.pl3        1    LIG   0.0000
  22 C22          4.4648    -3.1099     1.0593 C.3          1    LIG   0.0000
  23 C23          4.9448    -3.2981    -0.3708 C.ar         1    LIG   0.0000
  24 C24          4.7686    -4.5262    -0.9998 C.ar         1    LIG   0.0000
  25 C25          5.2114    -4.6899    -2.3082 C.ar         1    LIG   0.0000
  26 C26          5.8226    -3.6318    -2.9739 C.ar         1    LIG   0.0000
  27 C27          5.9944    -2.4070    -2.3372 C.ar         1    LIG   0.0000
  28 C28          5.5550    -2.2350    -1.0284 C.ar         1    LIG   0.0000
  29 N29          2.0038    -3.3916     1.0626 N.2          1    LIG   0.0000
  30 C30          0.9173    -2.6548     1.0535 C.2          1    LIG   0.0000
  31 C31         -0.4519    -3.1327     1.0637 C.ar         1    LIG   0.0000
  32 C32         -0.7981    -4.2456     0.3045 C.ar         1    LIG   0.0000
  33 C33         -2.1137    -4.6967     0.3197 C.ar         1    LIG   0.0000
  34 C34         -3.0673    -4.0365     1.0887 C.ar         1    LIG   0.0000
  35 C35         -2.7121    -2.9245     1.8452 C.ar         1    LIG   0.0000
  36 C36         -1.3985    -2.4664     1.8351 C.ar         1    LIG   0.0000
  37 H            1.7087     3.1407    -0.5006 H            1    LIG   0.0000
  38 H            1.7715     3.9377    -1.9245 H            1    LIG   0.0000
  39 H            0.4270     3.1079    -1.5120 H            1    LIG   0.0000
  40 H            2.4951    -0.0953    -4.4869 H            1    LIG   0.0000
  41 H            3.5955    -0.8326    -2.3147 H            1    LIG   0.0000
  42 H            2.0281     2.9522     4.9855 H            1    LIG   0.0000
  43 H            1.9521     3.2594     3.3835 H            1    LIG   0.0000
  44 H           -0.5029    -0.2463     1.0182 H            1    LIG   0.0000
  45 H            3.3108    -0.5267     1.0197 H            1    LIG   0.0000
  46 H            4.5140    -3.9827     1.5451 H            1    LIG   0.0000
  47 H            5.0454    -2.4387     1.5202 H            1    LIG   0.0000
  48 H            4.3285    -5.2831    -0.5166 H            1    LIG   0.0000
  49 H            5.0904    -5.5683    -2.7705 H            1    LIG   0.0000
  50 H            6.1399    -3.7525    -3.9145 H            1    LIG   0.0000
  51 H            6.4339    -1.6498    -2.8205 H            1    LIG   0.0000
  52 H            5.6765    -1.3570    -0.5656 H            1    LIG   0.0000
  53 H           -0.1087    -4.7163    -0.2461 H            1    LIG   0.0000
  54 H           -2.3745    -5.4956    -0.2223 H            1    LIG   0.0000
  55 H           -4.0124    -4.3632     1.0977 H            1    LIG   0.0000
  56 H           -3.4013    -2.4541     2.3964 H            1    LIG   0.0000
  57 H           -1.1377    -1.6670     2.3764 H            1    LIG   0.0000
@<TRIPOS>BOND
   1        1        2 1
   2        2        3 1
   3        3        4 1
   4        4        5 2
   5        5        6 1
   6        6        2 2
   7        6        7 1
   8        7        8 2
   9        8        9 1
  10        9       10 2
  11       10       11 1
  12       11       12 1
  13       12       13 1
  14       13       14 ar
  15       13       15 ar
  16       10       16 1
  17       16        7 1
  18       16       17 1
  19       17       18 2
  20       18       19 1
  21       19       20 2
  22       20       21 1
  23       21       22 1
  24       22       23 1
  25       23       24 ar
  26       24       25 ar
  27       25       26 ar
  28       26       27 ar
  29       27       28 ar
  30       28       23 ar
  31       21       29 1
  32       29       30 2
  33       30       19 1
  34       30       31 1
  35       31       32 ar
  36       32       33 ar
  37       33       34 ar
  38       34       35 ar
  39       35       36 ar
  40       36       31 ar
  41        1       37 1
  42        1       38 1
  43        1       39 1
  44        4       40 1
  45        5       41 1
  46       12       42 1
  47       12       43 1
  48       18       44 1
  49       20       45 1
  50       22       46 1
  51       22       47 1
  52       24       48 1
  53       25       49 1
  54       26       50 1
  55       27       51 1
  56       28       52 1
  57       32       53 1
  58       33       54 1
  59       34       55 1
  60       35       56 1
  61       36       57 1

@<TRIPOS>MOLECULE

  57   61
SMALL
USER_CHARGES
@<TRIPOS>ATOM
   1 C1           1.4255     3.1228    -1.4595 C.3          1    LIG   0.0000
   2 C2           1.9865     1.8804    -2.1302 C.2          1    LIG   0.0000
   3 O3           1.8273     1.5183    -3.3773 O.2          1    LIG   0.0000
   4 C4           2.4574     0.3879    -3.6122 C.2          1    LIG   0.0000
   5 C5           3.0491    -0.0063    -2.4516 C.2          1    LIG   0.0000
   6 C6           2.7476     0.9684    -1.4784 C.2          1    LIG   0.0000
   7 C7           3.1579     0.9836    -0.0890 C.2          1    LIG   0.0000
   8 N8           4.3853     0.9976     0.3574 N.2          1    LIG   0.0000
   9 N9           4.3778     1.0119     1.6777 N.2          1    LIG   0.0000
  10 C10          3.1380     1.0161     2.1034 C.2          1    LIG   0.0000
  11 S11          2.6076     1.0432     3.7597 S.3          1    LIG   0.0000
  12 C12          2.4828     2.8155     4.1054 C.3          1    LIG   0.0000
  13 C13          1.3111     3.4009     3.3343 C.2          1    LIG   0.0000
  14 O14          0.6133     2.6648     2.6037 O.co2        1    LIG   0.0000
  15 O15          1.0537     4.5795     3.4277 O.co2        1    LIG  -1.0000
  16 N16          2.3502     1.0000     1.0000 N.pl3        1    LIG   0.0000
  17 N17          1.0000     1.0000     1.0000 N.2          1    LIG   0.0000
  18 C18          0.4916    -0.1418     1.0167 C.2          1    LIG   0.0000
  19 C19          1.3436    -1.3144     1.0339 C.2          1    LIG   0.0000
  20 C20          2.7052    -1.3223     1.0321 C.2          1    LIG   0.0000
  21 N21          3.0752    -2.6318     1.0508 N.pl3        1    LIG   0.0000
  22 C22          4.4648    -3.1099     1.0593 C.3          1    LIG   0.0000
  23 C23          4.9432    -3.2515     2.4954 C.ar         1    LIG   0.0000
  24 C24          5.5531    -2.1726     3.1271 C.ar         1    LIG   0.0000
  25 C25          5.9884    -2.3111     4.4408 C.ar         1    LIG   0.0000
  26 C26          5.8118    -3.5188     5.1093 C.ar         1    LIG   0.0000
  27 C27          5.2005    -4.5924     4.4699 C.ar         1    LIG   0.0000
  28 C28          4.7628    -4.4625     3.1557 C.ar         1    LIG   0.0000
  29 N29          2.0038    -3.3916     1.0626 N.2          1    LIG   0.0000
  30 C30          0.9173    -2.6548     1.0535 C.2          1    LIG   0.0000
  31 C31         -0.4519    -3.1327     1.0637 C.ar         1    LIG   0.0000
  32 C32         -0.7981    -4.2456     0.3045 C.ar         1    LIG   0.0000
  33 C33         -2.1137    -4.6967     0.3197 C.ar         1    LIG   0.0000
  34 C34         -3.0673    -4.0365     1.0887 C.ar         1    LIG   0.0000
  35 C35         -2.7121    -2.9245     1.8452 C.ar         1    LIG   0.0000
  36 C36         -1.3985    -2.4664     1.8351 C.ar         1    LIG   0.0000
  37 H            1.7087     3.1407    -0.5006 H            1    LIG   0.0000
  38 H            1.7715     3.9377    -1.9245 H            1    LIG   0.0000
  39 H            0.4270     3.1079    -1.5120 H            1    LIG   0.0000
  40 H            2.4951    -0.0953    -4.4869 H            1    LIG   0.0000
  41 H            3.5955    -0.8326    -2.3147 H            1    LIG   0.0000
  42 H            3.3278     3.2703     3.8239 H            1    LIG   0.0000
  43 H            2.3399     2.9547     5.0853 H            1    LIG   0.0000
  44 H           -0.5029    -0.2463     1.0182 H            1    LIG   0.0000
  45 H            3.3108    -0.5267     1.0197 H            1    LIG   0.0000
  46 H            5.0459    -2.4541     0.5775 H            1    LIG   0.0000
  47 H            4.5145    -3.9980     0.6024 H            1    LIG   0.0000
  48 H            5.6772    -1.3070     2.6420 H            1    LIG   0.0000
  49 H            6.4285    -1.5425     4.9052 H            1    LIG   0.0000
  50 H            6.1257    -3.6153     6.0538 H            1    LIG   0.0000
  51 H            5.0757    -5.4578     4.9550 H            1    LIG   0.0000
  52 H            4.3234    -5.2312     2.6909 H            1    LIG   0.0000
  53 H           -0.1087    -4.7163    -0.2461 H            1    LIG   0.0000
  54 H           -2.3745    -5.4956    -0.2223 H            1    LIG   0.0000
  55 H           -4.0124    -4.3632     1.0977 H            1    LIG   0.0000
  56 H           -3.4013    -2.4541     2.3964 H            1    LIG   0.0000
  57 H           -1.1377    -1.6670     2.3764 H            1    LIG   0.0000
@<TRIPOS>BOND
   1        1        2 1
   2        2        3 1
   3        3        4 1
   4        4        5 2
   5        5        6 1
   6        6        2 2
   7        6        7 1
   8        7        8 2
   9        8        9 1
  10        9       10 2
  11       10       11 1
  12       11       12 1
  13       12       13 1
  14       13       14 ar
  15       13       15 ar
  16       10       16 1
  17       16        7 1
  18       16       17 1
  19       17       18 2
  20       18       19 1
  21       19       20 2
  22       20       21 1
  23       21       22 1
  24       22       23 1
  25       23       24 ar
  26       24       25 ar
  27       25       26 ar
  28       26       27 ar
  29       27       28 ar
  30       28       23 ar
  31       21       29 1
  32       29       30 2
  33       30       19 1
  34       30       31 1
  35       31       32 ar
  36       32       33 ar
  37       33       34 ar
  38       34       35 ar
  39       35       36 ar
  40       36       31 ar
  41        1       37 1
  42        1       38 1
  43        1       39 1
  44        4       40 1
  45        5       41 1
  46       12       42 1
  47       12       43 1
  48       18       44 1
  49       20       45 1
  50       22       46 1
  51       22       47 1
  52       24       48 1
  53       25       49 1
  54       26       50 1
  55       27       51 1
  56       28       52 1
  57       32       53 1
  58       33       54 1
  59       34       55 1
  60       35       56 1
  61       36       57 1

@<TRIPOS>MOLECULE

  57   61
SMALL
USER_CHARGES
@<TRIPOS>ATOM
   1 C1           1.4255     3.1228    -1.4595 C.3          1    LIG   0.0000
   2 C2           1.9865     1.8804    -2.1302 C.2          1    LIG   0.0000
   3 O3           1.8273     1.5183    -3.3773 O.2          1    LIG   0.0000
   4 C4           2.4574     0.3879    -3.6122 C.2          1    LIG   0.0000
   5 C5           3.0491    -0.0063    -2.4516 C.2          1    LIG   0.0000
   6 C6           2.7476     0.9684    -1.4784 C.2          1    LIG   0.0000
   7 C7           3.1579     0.9836    -0.0890 C.2          1    LIG   0.0000
   8 N8           4.3853     0.9976     0.3574 N.2          1    LIG   0.0000
   9 N9           4.3778     1.0119     1.6777 N.2          1    LIG   0.0000
  10 C10          3.1380     1.0161     2.1034 C.2          1    LIG   0.0000
  11 S11          2.6076     1.0432     3.7597 S.3          1    LIG   0.0000
  12 C12          2.4914    -0.7168     4.1659 C.3          1    LIG   0.0000
  13 C13          2.0316    -0.8751     5.6060 C.2          1    LIG   0.0000
  14 O14          1.8005     0.1364     6.3031 O.co2        1    LIG   0.0000
  15 O15          1.8894    -1.9803     6.0776 O.co2        1    LIG  -1.0000
  16 N16          2.3502     1.0000     1.0000 N.pl3        1    LIG   0.0000
  17 N17          1.0000     1.0000     1.0000 N.2          1    LIG   0.0000
  18 C18          0.4916    -0.1418     1.0167 C.2          1    LIG   0.0000
  19 C19          1.3436    -1.3144     1.0339 C.2          1    LIG   0.0000
  20 C20          2.7052    -1.3223     1.0321 C.2          1    LIG   0.0000
  21 N21          3.0752    -2.6318     1.0508 N.pl3        1    LIG   0.0000
  22 C22          4.4648    -3.1099     1.0593 C.3          1    LIG   0.0000
  23 C23          4.9432    -3.2515     2.4954 C.ar         1    LIG   0.0000
  24 C24          5.5531    -2.1726     3.1271 C.ar         1    LIG   0.0000
  25 C25          5.9884    -2.3111     4.4408 C.ar         1    LIG   0.0000
  26 C26          5.8118    -3.5188     5.1093 C.ar         1    LIG   0.0000
  27 C27          5.2005    -4.5924     4.4699 C.ar         1    LIG   0.0000
  28 C28          4.7628    -4.4625     3.1557 C.ar         1    LIG   0.0000
  29 N29          2.0038    -3.3916     1.0626 N.2          1    LIG   0.0000
  30 C30          0.9173    -2.6548     1.0535 C.2          1    LIG   0.0000
  31 C31         -0.4519    -3.1327     1.0637 C.ar         1    LIG   0.0000
  32 C32         -0.7981    -4.2456     0.3045 C.ar         1    LIG   0.0000
  33 C33         -2.1137    -4.6967     0.3197 C.ar         1    LIG   0.0000
  34 C34         -3.0673    -4.0365     1.0887 C.ar         1    LIG   0.0000
  35 C35         -2.7121    -2.9245     1.8452 C.ar         1    LIG   0.0000
  36 C36         -1.3985    -2.4664     1.8351 C.ar         1    LIG   0.0000
  37 H            1.7087     3.1407    -0.5006 H            1    LIG   0.0000
  38 H            1.7715     3.9377    -1.9245 H            1    LIG   0.0000
  39 H            0.4270     3.1079    -1.5120 H            1    LIG   0.0000
  40 H            2.4951    -0.0953    -4.4869 H            1    LIG   0.0000
  41 H            3.5955    -0.8326    -2.3147 H            1    LIG   0.0000
  42 H            3.3882    -1.1447     4.0533 H            1    LIG   0.0000
  43 H            1.8330    -1.1570     3.5554 H            1    LIG   0.0000
  44 H           -0.5029    -0.2463     1.0182 H            1    LIG   0.0000
  45 H            3.3108    -0.5267     1.0197 H            1    LIG   0.0000
  46 H            5.0459    -2.4541     0.5775 H            1    LIG   0.0000
  47 H            4.5145    -3.9980     0.6024 H            1    LIG   0.0000
  48 H            5.6772    -1.3070     2.6420 H            1    LIG   0.0000
  49 H            6.4285    -1.5425     4.9052 H            1    LIG   0.0000
  50 H            6.1257    -3.6153     6.0538 H            1    LIG   0.0000
  51 H            5.0757    -5.4578     4.9550 H            1    LIG   0.0000
  52 H            4.3234    -5.2312     2.6909 H            1    LIG   0.0000
  53 H           -0.1087    -4.7163    -0.2461 H            1    LIG   0.0000
  54 H           -2.3745    -5.4956    -0.2223 H            1    LIG   0.0000
  55 H           -4.0124    -4.3632     1.0977 H            1    LIG   0.0000
  56 H           -3.4013    -2.4541     2.3964 H            1    LIG   0.0000
  57 H           -1.1377    -1.6670     2.3764 H            1    LIG   0.0000
@<TRIPOS>BOND
   1        1        2 1
   2        2        3 1
   3        3        4 1
   4        4        5 2
   5        5        6 1
   6        6        2 2
   7        6        7 1
   8        7        8 2
   9        8        9 1
  10        9       10 2
  11       10       11 1
  12       11       12 1
  13       12       13 1
  14       13       14 ar
  15       13       15 ar
  16       10       16 1
  17       16        7 1
  18       16       17 1
  19       17       18 2
  20       18       19 1
  21       19       20 2
  22       20       21 1
  23       21       22 1
  24       22       23 1
  25       23       24 ar
  26       24       25 ar
  27       25       26 ar
  28       26       27 ar
  29       27       28 ar
  30       28       23 ar
  31       21       29 1
  32       29       30 2
  33       30       19 1
  34       30       31 1
  35       31       32 ar
  36       32       33 ar
  37       33       34 ar
  38       34       35 ar
  39       35       36 ar
  40       36       31 ar
  41        1       37 1
  42        1       38 1
  43        1       39 1
  44        4       40 1
  45        5       41 1
  46       12       42 1
  47       12       43 1
  48       18       44 1
  49       20       45 1
  50       22       46 1
  51       22       47 1
  52       24       48 1
  53       25       49 1
  54       26       50 1
  55       27       51 1
  56       28       52 1
  57       32       53 1
  58       33       54 1
  59       34       55 1
  60       35       56 1
  61       36       57 1

@<TRIPOS>MOLECULE

  57   61
SMALL
USER_CHARGES
@<TRIPOS>ATOM
   1 C1           1.4255     3.1228    -1.4595 C.3          1    LIG   0.0000
   2 C2           1.9865     1.8804    -2.1302 C.2          1    LIG   0.0000
   3 O3           1.8273     1.5183    -3.3773 O.2          1    LIG   0.0000
   4 C4           2.4574     0.3879    -3.6122 C.2          1    LIG   0.0000
   5 C5           3.0491    -0.0063    -2.4516 C.2          1    LIG   0.0000
   6 C6           2.7476     0.9684    -1.4784 C.2          1    LIG   0.0000
   7 C7           3.1579     0.9836    -0.0890 C.2          1    LIG   0.0000
   8 N8           4.3853     0.9976     0.3574 N.2          1    LIG   0.0000
   9 N9           4.3778     1.0119     1.6777 N.2          1    LIG   0.0000
  10 C10          3.1380     1.0161     2.1034 C.2          1    LIG   0.0000
  11 S11          2.6076     1.0432     3.7597 S.3          1    LIG   0.0000
  12 C12          2.4914    -0.7168     4.1659 C.3          1    LIG   0.0000
  13 C13          2.0316    -0.8751     5.6060 C.2          1    LIG   0.0000
  14 O14          1.8005     0.1364     6.3031 O.co2        1    LIG   0.0000
  15 O15          1.8894    -1.9803     6.0776 O.co2        1    LIG  -1.0000
  16 N16          2.3502     1.0000     1.0000 N.pl3        1    LIG   0.0000
  17 N17          1.0000     1.0000     1.0000 N.2          1    LIG   0.0000
  18 C18          0.4916    -0.1418     1.0167 C.2          1    LIG   0.0000
  19 C19          1.3436    -1.3144     1.0339 C.2          1    LIG   0.0000
  20 C20          2.7052    -1.3223     1.0321 C.2          1    LIG   0.0000
  21 N21          3.0752    -2.6318     1.0508 N.pl3        1    LIG   0.0000
  22 C22          4.4648    -3.1099     1.0593 C.3          1    LIG   0.0000
  23 C23          4.9448    -3.2981    -0.3708 C.ar         1    LIG   0.0000
  24 C24          4.7686    -4.5262    -0.9998 C.ar         1    LIG   0.0000
  25 C25          5.2114    -4.6899    -2.3082 C.ar         1    LIG   0.0000
  26 C26          5.8226    -3.6318    -2.9739 C.ar         1    LIG   0.0000
  27 C27          5.9944    -2.4070    -2.3372 C.ar         1    LIG   0.0000
  28 C28          5.5550    -2.2350    -1.0284 C.ar         1    LIG   0.0000
  29 N29          2.0038    -3.3916     1.0626 N.2          1    LIG   0.0000
  30 C30          0.9173    -2.6548     1.0535 C.2          1    LIG   0.0000
  31 C31         -0.4519    -3.1327     1.0637 C.ar         1    LIG   0.0000
  32 C32         -0.7981    -4.2456     0.3045 C.ar         1    LIG   0.0000
  33 C33         -2.1137    -4.6967     0.3197 C.ar         1    LIG   0.0000
  34 C34         -3.0673    -4.0365     1.0887 C.ar         1    LIG   0.0000
  35 C35         -2.7121    -2.9245     1.8452 C.ar         1    LIG   0.0000
  36 C36         -1.3985    -2.4664     1.8351 C.ar         1    LIG   0.0000
  37 H            1.7087     3.1407    -0.5006 H            1    LIG   0.0000
  38 H            1.7715     3.9377    -1.9245 H            1    LIG   0.0000
  39 H            0.4270     3.1079    -1.5120 H            1    LIG   0.0000
  40 H            2.4951    -0.0953    -4.4869 H            1    LIG   0.0000
  41 H            3.5955    -0.8326    -2.3147 H            1    LIG   0.0000
  42 H            3.3882    -1.1447     4.0533 H            1    LIG   0.0000
  43 H            1.8330    -1.1570     3.5554 H            1    LIG   0.0000
  44 H           -0.5029    -0.2463     1.0182 H            1    LIG   0.0000
  45 H            3.3108    -0.5267     1.0197 H            1    LIG   0.0000
  46 H            4.5140    -3.9827     1.5451 H            1    LIG   0.0000
  47 H            5.0454    -2.4387     1.5202 H            1    LIG   0.0000
  48 H            4.3285    -5.2831    -0.5166 H            1    LIG   0.0000
  49 H            5.0904    -5.5683    -2.7705 H            1    LIG   0.0000
  50 H            6.1399    -3.7525    -3.9145 H            1    LIG   0.0000
  51 H            6.4339    -1.6498    -2.8205 H            1    LIG   0.0000
  52 H            5.6765    -1.3570    -0.5656 H            1    LIG   0.0000
  53 H           -0.1087    -4.7163    -0.2461 H            1    LIG   0.0000
  54 H           -2.3745    -5.4956    -0.2223 H            1    LIG   0.0000
  55 H           -4.0124    -4.3632     1.0977 H            1    LIG   0.0000
  56 H           -3.4013    -2.4541     2.3964 H            1    LIG   0.0000
  57 H           -1.1377    -1.6670     2.3764 H            1    LIG   0.0000
@<TRIPOS>BOND
   1        1        2 1
   2        2        3 1
   3        3        4 1
   4        4        5 2
   5        5        6 1
   6        6        2 2
   7        6        7 1
   8        7        8 2
   9        8        9 1
  10        9       10 2
  11       10       11 1
  12       11       12 1
  13       12       13 1
  14       13       14 ar
  15       13       15 ar
  16       10       16 1
  17       16        7 1
  18       16       17 1
  19       17       18 2
  20       18       19 1
  21       19       20 2
  22       20       21 1
  23       21       22 1
  24       22       23 1
  25       23       24 ar
  26       24       25 ar
  27       25       26 ar
  28       26       27 ar
  29       27       28 ar
  30       28       23 ar
  31       21       29 1
  32       29       30 2
  33       30       19 1
  34       30       31 1
  35       31       32 ar
  36       32       33 ar
  37       33       34 ar
  38       34       35 ar
  39       35       36 ar
  40       36       31 ar
  41        1       37 1
  42        1       38 1
  43        1       39 1
  44        4       40 1
  45        5       41 1
  46       12       42 1
  47       12       43 1
  48       18       44 1
  49       20       45 1
  50       22       46 1
  51       22       47 1
  52       24       48 1
  53       25       49 1
  54       26       50 1
  55       27       51 1
  56       28       52 1
  57       32       53 1
  58       33       54 1
  59       34       55 1
  60       35       56 1
  61       36       57 1

@<TRIPOS>MOLECULE

  57   61
SMALL
USER_CHARGES
@<TRIPOS>ATOM
   1 C1           5.0560     0.9887    -2.5083 C.3          1    LIG   0.0000
   2 C2           3.5384     0.9717    -2.5786 C.2          1    LIG   0.0000
   3 O3           2.7998     0.9596    -3.6584 O.2          1    LIG   0.0000
   4 C4           1.5232     0.9428    -3.3424 C.2          1    LIG   0.0000
   5 C5           1.4317     0.9532    -1.9845 C.2          1    LIG   0.0000
   6 C6           2.7476     0.9684    -1.4784 C.2          1    LIG   0.0000
   7 C7           3.1579     0.9836    -0.0890 C.2          1    LIG   0.0000
   8 N8           4.3853     0.9976     0.3574 N.2          1    LIG   0.0000
   9 N9           4.3778     1.0119     1.6777 N.2          1    LIG   0.0000
  10 C10          3.1380     1.0161     2.1034 C.2          1    LIG   0.0000
  11 S11          2.6076     1.0432     3.7597 S.3          1    LIG   0.0000
  12 C12          2.4914    -0.7168     4.1659 C.3          1    LIG   0.0000
  13 C13          3.8876    -1.3137     4.2365 C.2          1    LIG   0.0000
  14 O14          4.8868    -0.5929     4.0257 O.co2        1    LIG   0.0000
  15 O15          4.0317    -2.4865     4.4969 O.co2        1    LIG  -1.0000
  16 N16          2.3502     1.0000     1.0000 N.pl3        1    LIG   0.0000
  17 N17          1.0000     1.0000     1.0000 N.2          1    LIG   0.0000
  18 C18          0.4916    -0.1418     1.0167 C.2          1    LIG   0.0000
  19 C19          1.3436    -1.3144     1.0339 C.2          1    LIG   0.0000
  20 C20          2.7052    -1.3223     1.0321 C.2          1    LIG   0.0000
  21 N21          3.0752    -2.6318     1.0508 N.pl3        1    LIG   0.0000
  22 C22          4.4648    -3.1099     1.0593 C.3          1    LIG   0.0000
  23 C23          4.9448    -3.2981    -0.3708 C.ar         1    LIG   0.0000
  24 C24          4.7686    -4.5262    -0.9998 C.ar         1    LIG   0.0000
  25 C25          5.2114    -4.6899    -2.3082 C.ar         1    LIG   0.0000
  26 C26          5.8226    -3.6318    -2.9739 C.ar         1    LIG   0.0000
  27 C27          5.9944    -2.4070    -2.3372 C.ar         1    LIG   0.0000
  28 C28          5.5550    -2.2350    -1.0284 C.ar         1    LIG   0.0000
  29 N29          2.0038    -3.3916     1.0626 N.2          1    LIG   0.0000
  30 C30          0.9173    -2.6548     1.0535 C.2          1    LIG   0.0000
  31 C31         -0.4519    -3.1327     1.0637 C.ar         1    LIG   0.0000
  32 C32         -0.7981    -4.2456     0.3045 C.ar         1    LIG   0.0000
  33 C33         -2.1137    -4.6967     0.3197 C.ar         1    LIG   0.0000
  34 C34         -3.0673    -4.0365     1.0887 C.ar         1    LIG   0.0000
  35 C35         -2.7121    -2.9245     1.8452 C.ar         1    LIG   0.0000
  36 C36         -1.3985    -2.4664     1.8351 C.ar         1    LIG   0.0000
  37 H            5.3453     0.9954    -1.5511 H            1    LIG   0.0000
  38 H            5.4198     0.1745    -2.9608 H            1    LIG   0.0000
  39 H            5.4018     1.8074    -2.9668 H            1    LIG   0.0000
  40 H            0.7570     0.9256    -3.9848 H            1    LIG   0.0000
  41 H            0.5888     0.9506    -1.4464 H            1    LIG   0.0000
  42 H            1.9629    -1.1877     3.4596 H            1    LIG   0.0000
  43 H            2.0373    -0.8255     5.0502 H            1    LIG   0.0000
  44 H           -0.5029    -0.2463     1.0182 H            1    LIG   0.0000
  45 H            3.3108    -0.5267     1.0197 H            1    LIG   0.0000
  46 H            4.5140    -3.9827     1.5451 H            1    LIG   0.0000
  47 H            5.0454    -2.4387     1.5202 H            1    LIG   0.0000
  48 H            4.3285    -5.2831    -0.5166 H            1    LIG   0.0000
  49 H            5.0904    -5.5683    -2.7705 H            1    LIG   0.0000
  50 H            6.1399    -3.7525    -3.9145 H            1    LIG   0.0000
  51 H            6.4339    -1.6498    -2.8205 H            1    LIG   0.0000
  52 H            5.6765    -1.3570    -0.5656 H            1    LIG   0.0000
  53 H           -0.1087    -4.7163    -0.2461 H            1    LIG   0.0000
  54 H           -2.3745    -5.4956    -0.2223 H            1    LIG   0.0000
  55 H           -4.0124    -4.3632     1.0977 H            1    LIG   0.0000
  56 H           -3.4013    -2.4541     2.3964 H            1    LIG   0.0000
  57 H           -1.1377    -1.6670     2.3764 H            1    LIG   0.0000
@<TRIPOS>BOND
   1        1        2 1
   2        2        3 1
   3        3        4 1
   4        4        5 2
   5        5        6 1
   6        6        2 2
   7        6        7 1
   8        7        8 2
   9        8        9 1
  10        9       10 2
  11       10       11 1
  12       11       12 1
  13       12       13 1
  14       13       14 ar
  15       13       15 ar
  16       10       16 1
  17       16        7 1
  18       16       17 1
  19       17       18 2
  20       18       19 1
  21       19       20 2
  22       20       21 1
  23       21       22 1
  24       22       23 1
  25       23       24 ar
  26       24       25 ar
  27       25       26 ar
  28       26       27 ar
  29       27       28 ar
  30       28       23 ar
  31       21       29 1
  32       29       30 2
  33       30       19 1
  34       30       31 1
  35       31       32 ar
  36       32       33 ar
  37       33       34 ar
  38       34       35 ar
  39       35       36 ar
  40       36       31 ar
  41        1       37 1
  42        1       38 1
  43        1       39 1
  44        4       40 1
  45        5       41 1
  46       12       42 1
  47       12       43 1
  48       18       44 1
  49       20       45 1
  50       22       46 1
  51       22       47 1
  52       24       48 1
  53       25       49 1
  54       26       50 1
  55       27       51 1
  56       28       52 1
  57       32       53 1
  58       33       54 1
  59       34       55 1
  60       35       56 1
  61       36       57 1

