@<TRIPOS>MOLECULE
*****
 57 61 0 0 0
SMALL
USER_CHARGES

@<TRIPOS>ATOM
      1 C1          5.0560    1.0113    4.5083 C.3     1  LIG1        0.0000
      2 C2          3.5384    1.0283    4.5786 C.2     1  LIG1        0.0000
      3 O3          2.7998    1.0404    5.6584 O.2     1  LIG1        0.0000
      4 C4          1.5232    1.0572    5.3424 C.2     1  LIG1        0.0000
      5 C5          1.4317    1.0468    3.9845 C.2     1  LIG1        0.0000
      6 C6          2.7476    1.0316    3.4784 C.2     1  LIG1        0.0000
      7 C7          3.1579    1.0164    2.0890 C.2     1  LIG1        0.0000
      8 N8          4.3853    1.0024    1.6426 N.2     1  LIG1        0.0000
      9 N9          4.3778    0.9881    0.3223 N.2     1  LIG1        0.0000
     10 C10         3.1380    0.9839   -0.1034 C.2     1  LIG1        0.0000
     11 S11         2.6076    0.9568   -1.7597 S.3     1  LIG1        0.0000
     12 C12         0.8049    0.9640   -1.5971 C.3     1  LIG1        0.0000
     13 C13         0.1715    0.9418   -2.9786 C.3     1  LIG1        0.0000
     14 O14         0.8951    0.9226   -3.9977 O.2     1  LIG1        0.0000
     15 O15        -1.0332    0.9428   -3.0920 O.2     1  LIG1       -1.0000
     16 N16         2.3502    1.0000    1.0000 N.pl3   1  LIG1        0.0000
     17 N17         1.0000    1.0000    1.0000 N.2     1  LIG1        0.0000
     18 C18         0.4916   -0.1418    1.0167 C.2     1  LIG1        0.0000
     19 C19         1.3436   -1.3144    1.0339 C.2     1  LIG1        0.0000
     20 C20         2.7052   -1.3223    1.0321 C.2     1  LIG1        0.0000
     21 N21         3.0752   -2.6318    1.0508 N.pl3   1  LIG1        0.0000
     22 C22         4.4648   -3.1099    1.0593 C.3     1  LIG1        0.0000
     23 C23         4.9448   -3.2981   -0.3708 C.3     1  LIG1        0.0000
     24 C24         4.7686   -4.5262   -0.9998 C.3     1  LIG1        0.0000
     25 C25         5.2114   -4.6899   -2.3082 C.3     1  LIG1        0.0000
     26 C26         5.8226   -3.6318   -2.9739 C.3     1  LIG1        0.0000
     27 C27         5.9944   -2.4070   -2.3372 C.3     1  LIG1        0.0000
     28 C28         5.5550   -2.2350   -1.0284 C.3     1  LIG1        0.0000
     29 N29         2.0038   -3.3916    1.0626 N.2     1  LIG1        0.0000
     30 C30         0.9173   -2.6548    1.0535 C.2     1  LIG1        0.0000
     31 C31        -0.4519   -3.1327    1.0637 C.3     1  LIG1        0.0000
     32 C32        -0.7981   -4.2456    0.3045 C.3     1  LIG1        0.0000
     33 C33        -2.1137   -4.6967    0.3197 C.3     1  LIG1        0.0000
     34 C34        -3.0673   -4.0365    1.0887 C.3     1  LIG1        0.0000
     35 C35        -2.7121   -2.9245    1.8452 C.3     1  LIG1        0.0000
     36 C36        -1.3985   -2.4664    1.8351 C.3     1  LIG1        0.0000
     37 H           5.3453    1.0046    3.5511 H       1  LIG1        0.0000
     38 H           5.4198    1.8255    4.9608 H       1  LIG1        0.0000
     39 H           5.4018    0.1926    4.9668 H       1  LIG1        0.0000
     40 H           0.7570    1.0744    5.9848 H       1  LIG1        0.0000
     41 H           0.5888    1.0494    3.4464 H       1  LIG1        0.0000
     42 H           0.5173    1.7896   -1.1117 H       1  LIG1        0.0000
     43 H           0.5133    0.1568   -1.0837 H       1  LIG1        0.0000
     44 H          -0.5029   -0.2463    1.0182 H       1  LIG1        0.0000
     45 H           3.3108   -0.5267    1.0197 H       1  LIG1        0.0000
     46 H           4.5140   -3.9827    1.5451 H       1  LIG1        0.0000
     47 H           5.0454   -2.4387    1.5202 H       1  LIG1        0.0000
     48 H           4.3285   -5.2831   -0.5166 H       1  LIG1        0.0000
     49 H           5.0904   -5.5683   -2.7705 H       1  LIG1        0.0000
     50 H           6.1399   -3.7525   -3.9145 H       1  LIG1        0.0000
     51 H           6.4339   -1.6498   -2.8205 H       1  LIG1        0.0000
     52 H           5.6765   -1.3570   -0.5656 H       1  LIG1        0.0000
     53 H          -0.1087   -4.7163   -0.2461 H       1  LIG1        0.0000
     54 H          -2.3745   -5.4956   -0.2223 H       1  LIG1        0.0000
     55 H          -4.0124   -4.3632    1.0977 H       1  LIG1        0.0000
     56 H          -3.4013   -2.4541    2.3964 H       1  LIG1        0.0000
     57 H          -1.1377   -1.6670    2.3764 H       1  LIG1        0.0000
@<TRIPOS>UNITY_ATOM_ATTR
14 1
charge -1
@<TRIPOS>BOND
     1     1     2    1
     2     2     3    1
     3     3     4    1
     4     4     5    2
     5     5     6    1
     6     6     2    2
     7     6     7    1
     8     7     8    2
     9     8     9    1
    10     9    10    2
    11    10    11    1
    12    11    12    1
    13    12    13    1
    14    13    14    1
    15    13    15    2
    16    10    16    1
    17    16     7    1
    18    16    17    1
    19    17    18    2
    20    18    19    1
    21    19    20    2
    22    20    21    1
    23    21    22    1
    24    22    23    1
    25    23    24   ar
    26    24    25   ar
    27    25    26   ar
    28    26    27   ar
    29    27    28   ar
    30    28    23   ar
    31    21    29    1
    32    29    30    2
    33    30    19    1
    34    30    31    1
    35    31    32   ar
    36    32    33   ar
    37    33    34   ar
    38    34    35   ar
    39    35    36   ar
    40    36    31   ar
    41     1    37    1
    42     1    38    1
    43     1    39    1
    44     4    40    1
    45     5    41    1
    46    12    42    1
    47    12    43    1
    48    18    44    1
    49    20    45    1
    50    22    46    1
    51    22    47    1
    52    24    48    1
    53    25    49    1
    54    26    50    1
    55    27    51    1
    56    28    52    1
    57    32    53    1
    58    33    54    1
    59    34    55    1
    60    35    56    1
    61    36    57    1
