@<TRIPOS>MOLECULE

  71   74
SMALL
USER_CHARGES
@<TRIPOS>ATOM
   1 C1          -1.6381     3.0826    -6.2593 C.3          1    LIG   0.0000
   2 C2          -1.2182     3.9563    -5.0886 C.3          1    LIG   0.0000
   3 C3          -1.1441     3.1118    -3.8270 C.3          1    LIG   0.0000
   4 C4          -0.7243     3.9855    -2.6563 C.3          1    LIG   0.0000
   5 N5          -0.6525     3.1675    -1.4343 N.pl3        1    LIG   0.0000
   6 C6           0.4627     2.5070    -1.0165 C.2          1    LIG   0.0000
   7 C7           0.1071     1.8773     0.1382 C.2          1    LIG   0.0000
   8 C8           1.0000     1.0000     1.0000 C.3          1    LIG   0.0000
   9 N9           1.8482     1.8482     1.8482 N.pl3        1    LIG   0.0000
  10 C10          1.5418     2.3018     3.0937 C.2          1    LIG   0.0000
  11 C11          0.2662     2.0264     3.8727 C.3          1    LIG   0.0000
  12 C12          0.4414     0.7644     4.7018 C.ar         1    LIG   0.0000
  13 C13          0.1016    -0.4687     4.1564 C.ar         1    LIG   0.0000
  14 C14          0.2586    -1.6288     4.9077 C.ar         1    LIG   0.0000
  15 C15          0.7560    -1.5357     6.2036 C.ar         1    LIG   0.0000
  16 Cl16         0.9592    -3.0155     7.1713 Cl           1    LIG   0.0000
  17 C17          1.0977    -0.3066     6.7580 C.ar         1    LIG   0.0000
  18 C18          0.9376     0.8483     5.9980 C.ar         1    LIG   0.0000
  19 N19          2.5625     3.0205     3.4945 N.2          1    LIG   0.0000
  20 N20          3.4901     3.0421     2.5542 N.2          1    LIG   0.0000
  21 C21          3.0824     2.3287     1.5337 C.2          1    LIG   0.0000
  22 N22          3.7883     2.1005     0.3448 N.pl3        1    LIG   0.0000
  23 C23          5.1235     2.6871     0.1576 C.3          1    LIG   0.0000
  24 C24          5.0042     4.0680    -0.4568 C.3          1    LIG   0.0000
  25 C25          3.7719     4.0496    -1.3442 C.3          1    LIG   0.0000
  26 N26          3.9290     3.0613    -2.4211 N.am         1    LIG   0.0000
  27 C27          4.3673     3.4638    -3.7653 C.3          1    LIG   0.0000
  28 C28          5.8842     3.4050    -3.8424 C.3          1    LIG   0.0000
  29 C29          6.3374     3.8212    -5.2322 C.3          1    LIG   0.0000
  30 C30          3.6499     1.7221    -2.1193 C.2          1    LIG   0.0000
  31 O31          3.7595     0.8799    -2.9957 O.2          1    LIG   0.0000
  32 C32          3.2148     1.2755    -0.7299 C.3          1    LIG   0.0000
  33 C33         -1.2469     2.1836     0.3822 C.2          1    LIG   0.0000
  34 C34         -2.0898     1.7051     1.5525 C.3          1    LIG   0.0000
  35 N35         -1.6444     2.9619    -0.5952 N.2          1    LIG   0.0000
  36 H           -1.6868     3.6382    -7.0893 H            1    LIG   0.0000
  37 H           -0.9680     2.3513    -6.3866 H            1    LIG   0.0000
  38 H           -2.5356     2.6833    -6.0723 H            1    LIG   0.0000
  39 H           -0.3206     4.3555    -5.2757 H            1    LIG   0.0000
  40 H           -1.8883     4.6876    -4.9613 H            1    LIG   0.0000
  41 H           -2.0417     2.7126    -3.6399 H            1    LIG   0.0000
  42 H           -0.4740     2.3805    -3.9543 H            1    LIG   0.0000
  43 H            0.1733     4.3848    -2.8433 H            1    LIG   0.0000
  44 H           -1.3944     4.7168    -2.5290 H            1    LIG   0.0000
  45 H            1.3567     2.4880    -1.4642 H            1    LIG   0.0000
  46 H            0.4329     0.4125     1.5773 H            1    LIG   0.0000
  47 H            1.5773     0.4329     0.4125 H            1    LIG   0.0000
  48 H            0.0719     2.7984     4.4778 H            1    LIG   0.0000
  49 H           -0.4939     1.9033     3.2348 H            1    LIG   0.0000
  50 H           -0.2557    -0.5216     3.2239 H            1    LIG   0.0000
  51 H            0.0169    -2.5188     4.5211 H            1    LIG   0.0000
  52 H            1.4539    -0.2535     7.6909 H            1    LIG   0.0000
  53 H            1.1794     1.7385     6.3842 H            1    LIG   0.0000
  54 H            5.6605     2.1006    -0.4487 H            1    LIG   0.0000
  55 H            5.5809     2.7579     1.0441 H            1    LIG   0.0000
  56 H            5.8173     4.2737    -1.0013 H            1    LIG   0.0000
  57 H            4.9009     4.7563     0.2612 H            1    LIG   0.0000
  58 H            2.9725     3.8114    -0.7926 H            1    LIG   0.0000
  59 H            3.6417     4.9562    -1.7456 H            1    LIG   0.0000
  60 H            4.0601     4.3973    -3.9505 H            1    LIG   0.0000
  61 H            3.9747     2.8429    -4.4438 H            1    LIG   0.0000
  62 H            6.1914     2.4715    -3.6572 H            1    LIG   0.0000
  63 H            6.2768     4.0259    -3.1639 H            1    LIG   0.0000
  64 H            7.3354     3.7825    -5.2829 H            1    LIG   0.0000
  65 H            5.9449     3.2003    -5.9107 H            1    LIG   0.0000
  66 H            6.0302     4.7546    -5.4174 H            1    LIG   0.0000
  67 H            2.2177     1.3294    -0.6755 H            1    LIG   0.0000
  68 H            3.5053     0.3283    -0.5941 H            1    LIG   0.0000
  69 H           -1.5347     1.1237     2.1474 H            1    LIG   0.0000
  70 H           -2.4192     2.4943     2.0708 H            1    LIG   0.0000
  71 H           -2.8702     1.1823     1.2094 H            1    LIG   0.0000
@<TRIPOS>BOND
   1        1        2 1
   2        2        3 1
   3        3        4 1
   4        4        5 1
   5        5        6 1
   6        6        7 2
   7        7        8 1
   8        8        9 1
   9        9       10 1
  10       10       11 1
  11       11       12 1
  12       12       13 ar
  13       13       14 ar
  14       14       15 ar
  15       15       16 1
  16       15       17 ar
  17       17       18 ar
  18       18       12 ar
  19       10       19 2
  20       19       20 1
  21       20       21 2
  22       21        9 1
  23       21       22 1
  24       22       23 1
  25       23       24 1
  26       24       25 1
  27       25       26 1
  28       26       27 1
  29       27       28 1
  30       28       29 1
  31       26       30 am
  32       30       31 2
  33       30       32 1
  34       32       22 1
  35        7       33 1
  36       33       34 1
  37       33       35 2
  38       35        5 1
  39        1       36 1
  40        1       37 1
  41        1       38 1
  42        2       39 1
  43        2       40 1
  44        3       41 1
  45        3       42 1
  46        4       43 1
  47        4       44 1
  48        6       45 1
  49        8       46 1
  50        8       47 1
  51       11       48 1
  52       11       49 1
  53       13       50 1
  54       14       51 1
  55       17       52 1
  56       18       53 1
  57       23       54 1
  58       23       55 1
  59       24       56 1
  60       24       57 1
  61       25       58 1
  62       25       59 1
  63       27       60 1
  64       27       61 1
  65       28       62 1
  66       28       63 1
  67       29       64 1
  68       29       65 1
  69       29       66 1
  70       32       67 1
  71       32       68 1
  72       34       69 1
  73       34       70 1
  74       34       71 1

@<TRIPOS>MOLECULE

  71   74
SMALL
USER_CHARGES
@<TRIPOS>ATOM
   1 C1          -3.8594     7.3319     0.3022 C.3          1    LIG   0.0000
   2 C2          -2.7277     6.8636    -0.5980 C.3          1    LIG   0.0000
   3 C3          -2.3552     5.4337    -0.2414 C.3          1    LIG   0.0000
   4 C4          -1.2234     4.9655    -1.1415 C.3          1    LIG   0.0000
   5 N5          -0.8626     3.5805    -0.7961 N.pl3        1    LIG   0.0000
   6 C6           0.0807     3.2394     0.1249 C.2          1    LIG   0.0000
   7 C7           0.1071     1.8773     0.1382 C.2          1    LIG   0.0000
   8 C8           1.0000     1.0000     1.0000 C.3          1    LIG   0.0000
   9 N9           1.8482     1.8482     1.8482 N.pl3        1    LIG   0.0000
  10 C10          1.5418     2.3018     3.0937 C.2          1    LIG   0.0000
  11 C11          0.2662     2.0264     3.8727 C.3          1    LIG   0.0000
  12 C12          0.4414     0.7644     4.7018 C.ar         1    LIG   0.0000
  13 C13          0.1016    -0.4687     4.1564 C.ar         1    LIG   0.0000
  14 C14          0.2586    -1.6288     4.9077 C.ar         1    LIG   0.0000
  15 C15          0.7560    -1.5357     6.2036 C.ar         1    LIG   0.0000
  16 Cl16         0.9592    -3.0155     7.1713 Cl           1    LIG   0.0000
  17 C17          1.0977    -0.3066     6.7580 C.ar         1    LIG   0.0000
  18 C18          0.9376     0.8483     5.9980 C.ar         1    LIG   0.0000
  19 N19          2.5625     3.0205     3.4945 N.2          1    LIG   0.0000
  20 N20          3.4901     3.0421     2.5542 N.2          1    LIG   0.0000
  21 C21          3.0824     2.3287     1.5337 C.2          1    LIG   0.0000
  22 N22          3.7883     2.1005     0.3448 N.pl3        1    LIG   0.0000
  23 C23          5.1235     2.6871     0.1576 C.3          1    LIG   0.0000
  24 C24          5.0042     4.0680    -0.4568 C.3          1    LIG   0.0000
  25 C25          3.7719     4.0496    -1.3442 C.3          1    LIG   0.0000
  26 N26          3.9290     3.0613    -2.4211 N.am         1    LIG   0.0000
  27 C27          4.3673     3.4638    -3.7653 C.3          1    LIG   0.0000
  28 C28          5.8842     3.4050    -3.8424 C.3          1    LIG   0.0000
  29 C29          6.3374     3.8212    -5.2322 C.3          1    LIG   0.0000
  30 C30          3.6499     1.7221    -2.1193 C.2          1    LIG   0.0000
  31 O31          3.7595     0.8799    -2.9957 O.2          1    LIG   0.0000
  32 C32          3.2148     1.2755    -0.7299 C.3          1    LIG   0.0000
  33 C33         -0.8427     1.4309    -0.8028 C.2          1    LIG   0.0000
  34 C34         -1.1713    -0.0121    -1.1472 C.3          1    LIG   0.0000
  35 N35         -1.3914     2.4998    -1.3278 N.2          1    LIG   0.0000
  36 H           -4.1045     8.2726     0.0676 H            1    LIG   0.0000
  37 H           -4.6542     6.7386     0.1744 H            1    LIG   0.0000
  38 H           -3.5641     7.2925     1.2568 H            1    LIG   0.0000
  39 H           -3.0230     6.9029    -1.5526 H            1    LIG   0.0000
  40 H           -1.9329     7.4569    -0.4702 H            1    LIG   0.0000
  41 H           -2.0599     5.3944     0.7132 H            1    LIG   0.0000
  42 H           -3.1500     4.8405    -0.3692 H            1    LIG   0.0000
  43 H           -1.5187     5.0048    -2.0961 H            1    LIG   0.0000
  44 H           -0.4286     5.5587    -1.0138 H            1    LIG   0.0000
  45 H            0.6380     3.8597     0.6767 H            1    LIG   0.0000
  46 H            0.4329     0.4125     1.5773 H            1    LIG   0.0000
  47 H            1.5773     0.4329     0.4125 H            1    LIG   0.0000
  48 H            0.0719     2.7984     4.4778 H            1    LIG   0.0000
  49 H           -0.4939     1.9033     3.2348 H            1    LIG   0.0000
  50 H           -0.2557    -0.5216     3.2239 H            1    LIG   0.0000
  51 H            0.0169    -2.5188     4.5211 H            1    LIG   0.0000
  52 H            1.4539    -0.2535     7.6909 H            1    LIG   0.0000
  53 H            1.1794     1.7385     6.3842 H            1    LIG   0.0000
  54 H            5.6605     2.1006    -0.4487 H            1    LIG   0.0000
  55 H            5.5809     2.7579     1.0441 H            1    LIG   0.0000
  56 H            5.8173     4.2737    -1.0013 H            1    LIG   0.0000
  57 H            4.9009     4.7563     0.2612 H            1    LIG   0.0000
  58 H            2.9725     3.8114    -0.7926 H            1    LIG   0.0000
  59 H            3.6417     4.9562    -1.7456 H            1    LIG   0.0000
  60 H            4.0601     4.3973    -3.9505 H            1    LIG   0.0000
  61 H            3.9747     2.8429    -4.4438 H            1    LIG   0.0000
  62 H            6.1914     2.4715    -3.6572 H            1    LIG   0.0000
  63 H            6.2768     4.0259    -3.1639 H            1    LIG   0.0000
  64 H            7.3354     3.7825    -5.2829 H            1    LIG   0.0000
  65 H            5.9449     3.2003    -5.9107 H            1    LIG   0.0000
  66 H            6.0302     4.7546    -5.4174 H            1    LIG   0.0000
  67 H            2.2177     1.3294    -0.6755 H            1    LIG   0.0000
  68 H            3.5053     0.3283    -0.5941 H            1    LIG   0.0000
  69 H           -0.6033    -0.6238    -0.5966 H            1    LIG   0.0000
  70 H           -2.1363    -0.1894    -0.9542 H            1    LIG   0.0000
  71 H           -0.9904    -0.1726    -2.1175 H            1    LIG   0.0000
@<TRIPOS>BOND
   1        1        2 1
   2        2        3 1
   3        3        4 1
   4        4        5 1
   5        5        6 1
   6        6        7 2
   7        7        8 1
   8        8        9 1
   9        9       10 1
  10       10       11 1
  11       11       12 1
  12       12       13 ar
  13       13       14 ar
  14       14       15 ar
  15       15       16 1
  16       15       17 ar
  17       17       18 ar
  18       18       12 ar
  19       10       19 2
  20       19       20 1
  21       20       21 2
  22       21        9 1
  23       21       22 1
  24       22       23 1
  25       23       24 1
  26       24       25 1
  27       25       26 1
  28       26       27 1
  29       27       28 1
  30       28       29 1
  31       26       30 am
  32       30       31 2
  33       30       32 1
  34       32       22 1
  35        7       33 1
  36       33       34 1
  37       33       35 2
  38       35        5 1
  39        1       36 1
  40        1       37 1
  41        1       38 1
  42        2       39 1
  43        2       40 1
  44        3       41 1
  45        3       42 1
  46        4       43 1
  47        4       44 1
  48        6       45 1
  49        8       46 1
  50        8       47 1
  51       11       48 1
  52       11       49 1
  53       13       50 1
  54       14       51 1
  55       17       52 1
  56       18       53 1
  57       23       54 1
  58       23       55 1
  59       24       56 1
  60       24       57 1
  61       25       58 1
  62       25       59 1
  63       27       60 1
  64       27       61 1
  65       28       62 1
  66       28       63 1
  67       29       64 1
  68       29       65 1
  69       29       66 1
  70       32       67 1
  71       32       68 1
  72       34       69 1
  73       34       70 1
  74       34       71 1

@<TRIPOS>MOLECULE

  71   74
SMALL
USER_CHARGES
@<TRIPOS>ATOM
   1 C1           0.9833     7.4694    -2.8570 C.3          1    LIG   0.0000
   2 C2          -0.3451     6.9701    -2.3125 C.3          1    LIG   0.0000
   3 C3          -0.3400     5.4504    -2.2794 C.3          1    LIG   0.0000
   4 C4          -1.2234     4.9655    -1.1415 C.3          1    LIG   0.0000
   5 N5          -0.8626     3.5805    -0.7961 N.pl3        1    LIG   0.0000
   6 C6           0.0807     3.2394     0.1249 C.2          1    LIG   0.0000
   7 C7           0.1071     1.8773     0.1382 C.2          1    LIG   0.0000
   8 C8           1.0000     1.0000     1.0000 C.3          1    LIG   0.0000
   9 N9           1.8482     1.8482     1.8482 N.pl3        1    LIG   0.0000
  10 C10          1.5418     2.3018     3.0937 C.2          1    LIG   0.0000
  11 C11          0.2662     2.0264     3.8727 C.3          1    LIG   0.0000
  12 C12          0.6201     1.5432     5.2697 C.ar         1    LIG   0.0000
  13 C13          0.7847     0.1826     5.5051 C.ar         1    LIG   0.0000
  14 C14          1.1087    -0.2686     6.7804 C.ar         1    LIG   0.0000
  15 C15          1.2629     0.6559     7.8084 C.ar         1    LIG   0.0000
  16 Cl16         1.6769     0.0863     9.4429 Cl           1    LIG   0.0000
  17 C17          1.0994     2.0187     7.5828 C.ar         1    LIG   0.0000
  18 C18          0.7759     2.4604     6.3032 C.ar         1    LIG   0.0000
  19 N19          2.5625     3.0205     3.4945 N.2          1    LIG   0.0000
  20 N20          3.4901     3.0421     2.5542 N.2          1    LIG   0.0000
  21 C21          3.0824     2.3287     1.5337 C.2          1    LIG   0.0000
  22 N22          3.7883     2.1005     0.3448 N.pl3        1    LIG   0.0000
  23 C23          5.1235     2.6871     0.1576 C.3          1    LIG   0.0000
  24 C24          5.0042     4.0680    -0.4568 C.3          1    LIG   0.0000
  25 C25          3.7719     4.0496    -1.3442 C.3          1    LIG   0.0000
  26 N26          3.9290     3.0613    -2.4211 N.am         1    LIG   0.0000
  27 C27          4.3673     3.4638    -3.7653 C.3          1    LIG   0.0000
  28 C28          5.8842     3.4050    -3.8424 C.3          1    LIG   0.0000
  29 C29          6.3374     3.8212    -5.2322 C.3          1    LIG   0.0000
  30 C30          3.6499     1.7221    -2.1193 C.2          1    LIG   0.0000
  31 O31          3.7595     0.8799    -2.9957 O.2          1    LIG   0.0000
  32 C32          3.2148     1.2755    -0.7299 C.3          1    LIG   0.0000
  33 C33         -0.8427     1.4309    -0.8028 C.2          1    LIG   0.0000
  34 C34         -1.1713    -0.0121    -1.1472 C.3          1    LIG   0.0000
  35 N35         -1.3914     2.4998    -1.3278 N.2          1    LIG   0.0000
  36 H            0.9799     8.4692    -2.8788 H            1    LIG   0.0000
  37 H            1.7259     7.1514    -2.2677 H            1    LIG   0.0000
  38 H            1.1179     7.1163    -3.7829 H            1    LIG   0.0000
  39 H           -0.4798     7.3232    -1.3867 H            1    LIG   0.0000
  40 H           -1.0877     7.2882    -2.9019 H            1    LIG   0.0000
  41 H           -0.6899     5.0970    -3.1470 H            1    LIG   0.0000
  42 H            0.5944     5.1232    -2.1387 H            1    LIG   0.0000
  43 H           -1.0915     5.5533    -0.3434 H            1    LIG   0.0000
  44 H           -2.1816     4.9993    -1.4257 H            1    LIG   0.0000
  45 H            0.6380     3.8597     0.6767 H            1    LIG   0.0000
  46 H            0.4329     0.4125     1.5773 H            1    LIG   0.0000
  47 H            1.5773     0.4329     0.4125 H            1    LIG   0.0000
  48 H           -0.2729     2.8661     3.9370 H            1    LIG   0.0000
  49 H           -0.2667     1.3233     3.4018 H            1    LIG   0.0000
  50 H            0.6701    -0.4715     4.7575 H            1    LIG   0.0000
  51 H            1.2292    -1.2456     6.9562 H            1    LIG   0.0000
  52 H            1.2127     2.6728     8.3306 H            1    LIG   0.0000
  53 H            0.6555     3.4373     6.1271 H            1    LIG   0.0000
  54 H            5.6605     2.1006    -0.4487 H            1    LIG   0.0000
  55 H            5.5809     2.7579     1.0441 H            1    LIG   0.0000
  56 H            5.8173     4.2737    -1.0013 H            1    LIG   0.0000
  57 H            4.9009     4.7563     0.2612 H            1    LIG   0.0000
  58 H            2.9725     3.8114    -0.7926 H            1    LIG   0.0000
  59 H            3.6417     4.9562    -1.7456 H            1    LIG   0.0000
  60 H            4.0601     4.3973    -3.9505 H            1    LIG   0.0000
  61 H            3.9747     2.8429    -4.4438 H            1    LIG   0.0000
  62 H            6.1914     2.4715    -3.6572 H            1    LIG   0.0000
  63 H            6.2768     4.0259    -3.1639 H            1    LIG   0.0000
  64 H            7.3354     3.7825    -5.2829 H            1    LIG   0.0000
  65 H            5.9449     3.2003    -5.9107 H            1    LIG   0.0000
  66 H            6.0302     4.7546    -5.4174 H            1    LIG   0.0000
  67 H            2.2177     1.3294    -0.6755 H            1    LIG   0.0000
  68 H            3.5053     0.3283    -0.5941 H            1    LIG   0.0000
  69 H           -0.6033    -0.6238    -0.5966 H            1    LIG   0.0000
  70 H           -2.1363    -0.1894    -0.9542 H            1    LIG   0.0000
  71 H           -0.9904    -0.1726    -2.1175 H            1    LIG   0.0000
@<TRIPOS>BOND
   1        1        2 1
   2        2        3 1
   3        3        4 1
   4        4        5 1
   5        5        6 1
   6        6        7 2
   7        7        8 1
   8        8        9 1
   9        9       10 1
  10       10       11 1
  11       11       12 1
  12       12       13 ar
  13       13       14 ar
  14       14       15 ar
  15       15       16 1
  16       15       17 ar
  17       17       18 ar
  18       18       12 ar
  19       10       19 2
  20       19       20 1
  21       20       21 2
  22       21        9 1
  23       21       22 1
  24       22       23 1
  25       23       24 1
  26       24       25 1
  27       25       26 1
  28       26       27 1
  29       27       28 1
  30       28       29 1
  31       26       30 am
  32       30       31 2
  33       30       32 1
  34       32       22 1
  35        7       33 1
  36       33       34 1
  37       33       35 2
  38       35        5 1
  39        1       36 1
  40        1       37 1
  41        1       38 1
  42        2       39 1
  43        2       40 1
  44        3       41 1
  45        3       42 1
  46        4       43 1
  47        4       44 1
  48        6       45 1
  49        8       46 1
  50        8       47 1
  51       11       48 1
  52       11       49 1
  53       13       50 1
  54       14       51 1
  55       17       52 1
  56       18       53 1
  57       23       54 1
  58       23       55 1
  59       24       56 1
  60       24       57 1
  61       25       58 1
  62       25       59 1
  63       27       60 1
  64       27       61 1
  65       28       62 1
  66       28       63 1
  67       29       64 1
  68       29       65 1
  69       29       66 1
  70       32       67 1
  71       32       68 1
  72       34       69 1
  73       34       70 1
  74       34       71 1

@<TRIPOS>MOLECULE

  71   74
SMALL
USER_CHARGES
@<TRIPOS>ATOM
   1 C1          -3.1859     6.5544     2.4704 C.3          1    LIG   0.0000
   2 C2          -3.4102     5.9566     1.0910 C.3          1    LIG   0.0000
   3 C3          -2.1056     5.3733     0.5733 C.3          1    LIG   0.0000
   4 C4          -2.4015     4.3688    -0.5283 C.3          1    LIG   0.0000
   5 N5          -1.3590     3.3293    -0.5376 N.pl3        1    LIG   0.0000
   6 C6          -0.8062     2.7858     0.5819 C.2          1    LIG   0.0000
   7 C7           0.1071     1.8773     0.1382 C.2          1    LIG   0.0000
   8 C8           1.0000     1.0000     1.0000 C.3          1    LIG   0.0000
   9 N9           1.8482     1.8482     1.8482 N.pl3        1    LIG   0.0000
  10 C10          1.5418     2.3018     3.0937 C.2          1    LIG   0.0000
  11 C11          0.2662     2.0264     3.8727 C.3          1    LIG   0.0000
  12 C12          0.6201     1.5432     5.2697 C.ar         1    LIG   0.0000
  13 C13          1.5393     0.5119     5.4279 C.ar         1    LIG   0.0000
  14 C14          1.8692     0.0633     6.7026 C.ar         1    LIG   0.0000
  15 C15          1.2686     0.6577     7.8076 C.ar         1    LIG   0.0000
  16 Cl16         1.6851     0.0890     9.4418 Cl           1    LIG   0.0000
  17 C17          0.3473     1.6893     7.6594 C.ar         1    LIG   0.0000
  18 C18          0.0242     2.1315     6.3799 C.ar         1    LIG   0.0000
  19 N19          2.5625     3.0205     3.4945 N.2          1    LIG   0.0000
  20 N20          3.4901     3.0421     2.5542 N.2          1    LIG   0.0000
  21 C21          3.0824     2.3287     1.5337 C.2          1    LIG   0.0000
  22 N22          3.7883     2.1005     0.3448 N.pl3        1    LIG   0.0000
  23 C23          5.1235     2.6871     0.1576 C.3          1    LIG   0.0000
  24 C24          5.0042     4.0680    -0.4568 C.3          1    LIG   0.0000
  25 C25          3.7719     4.0496    -1.3442 C.3          1    LIG   0.0000
  26 N26          3.9290     3.0613    -2.4211 N.am         1    LIG   0.0000
  27 C27          4.3673     3.4638    -3.7653 C.3          1    LIG   0.0000
  28 C28          5.8842     3.4050    -3.8424 C.3          1    LIG   0.0000
  29 C29          6.3374     3.8212    -5.2322 C.3          1    LIG   0.0000
  30 C30          3.6499     1.7221    -2.1193 C.2          1    LIG   0.0000
  31 O31          3.7595     0.8799    -2.9957 O.2          1    LIG   0.0000
  32 C32          3.2148     1.2755    -0.7299 C.3          1    LIG   0.0000
  33 C33          0.0768     1.9071    -1.2707 C.2          1    LIG   0.0000
  34 C34          0.9240     1.0713    -2.2153 C.3          1    LIG   0.0000
  35 N35         -0.8234     2.7964    -1.6144 N.2          1    LIG   0.0000
  36 H           -4.0443     6.9382     2.8110 H            1    LIG   0.0000
  37 H           -2.8686     5.8411     3.0953 H            1    LIG   0.0000
  38 H           -2.4974     7.2773     2.4125 H            1    LIG   0.0000
  39 H           -4.0988     5.2337     1.1490 H            1    LIG   0.0000
  40 H           -3.7276     6.6699     0.4662 H            1    LIG   0.0000
  41 H           -1.5331     6.1081     0.2095 H            1    LIG   0.0000
  42 H           -1.6250     4.9157     1.3214 H            1    LIG   0.0000
  43 H           -3.2925     3.9458    -0.3632 H            1    LIG   0.0000
  44 H           -2.4134     4.8369    -1.4119 H            1    LIG   0.0000
  45 H           -1.0251     3.0074     1.5322 H            1    LIG   0.0000
  46 H            0.4329     0.4125     1.5773 H            1    LIG   0.0000
  47 H            1.5773     0.4329     0.4125 H            1    LIG   0.0000
  48 H           -0.2729     2.8661     3.9370 H            1    LIG   0.0000
  49 H           -0.2667     1.3233     3.4018 H            1    LIG   0.0000
  50 H            1.9632     0.0926     4.6251 H            1    LIG   0.0000
  51 H            2.5301    -0.6774     6.8232 H            1    LIG   0.0000
  52 H           -0.0776     2.1078     8.4620 H            1    LIG   0.0000
  53 H           -0.6364     2.8724     6.2589 H            1    LIG   0.0000
  54 H            5.6605     2.1006    -0.4487 H            1    LIG   0.0000
  55 H            5.5809     2.7579     1.0441 H            1    LIG   0.0000
  56 H            5.8173     4.2737    -1.0013 H            1    LIG   0.0000
  57 H            4.9009     4.7563     0.2612 H            1    LIG   0.0000
  58 H            2.9725     3.8114    -0.7926 H            1    LIG   0.0000
  59 H            3.6417     4.9562    -1.7456 H            1    LIG   0.0000
  60 H            4.0601     4.3973    -3.9505 H            1    LIG   0.0000
  61 H            3.9747     2.8429    -4.4438 H            1    LIG   0.0000
  62 H            6.1914     2.4715    -3.6572 H            1    LIG   0.0000
  63 H            6.2768     4.0259    -3.1639 H            1    LIG   0.0000
  64 H            7.3354     3.7825    -5.2829 H            1    LIG   0.0000
  65 H            5.9449     3.2003    -5.9107 H            1    LIG   0.0000
  66 H            6.0302     4.7546    -5.4174 H            1    LIG   0.0000
  67 H            2.2177     1.3294    -0.6755 H            1    LIG   0.0000
  68 H            3.5053     0.3283    -0.5941 H            1    LIG   0.0000
  69 H            1.5266     0.4757    -1.6841 H            1    LIG   0.0000
  70 H            0.3277     0.5130    -2.7922 H            1    LIG   0.0000
  71 H            1.4752     1.6749    -2.7913 H            1    LIG   0.0000
@<TRIPOS>BOND
   1        1        2 1
   2        2        3 1
   3        3        4 1
   4        4        5 1
   5        5        6 1
   6        6        7 2
   7        7        8 1
   8        8        9 1
   9        9       10 1
  10       10       11 1
  11       11       12 1
  12       12       13 ar
  13       13       14 ar
  14       14       15 ar
  15       15       16 1
  16       15       17 ar
  17       17       18 ar
  18       18       12 ar
  19       10       19 2
  20       19       20 1
  21       20       21 2
  22       21        9 1
  23       21       22 1
  24       22       23 1
  25       23       24 1
  26       24       25 1
  27       25       26 1
  28       26       27 1
  29       27       28 1
  30       28       29 1
  31       26       30 am
  32       30       31 2
  33       30       32 1
  34       32       22 1
  35        7       33 1
  36       33       34 1
  37       33       35 2
  38       35        5 1
  39        1       36 1
  40        1       37 1
  41        1       38 1
  42        2       39 1
  43        2       40 1
  44        3       41 1
  45        3       42 1
  46        4       43 1
  47        4       44 1
  48        6       45 1
  49        8       46 1
  50        8       47 1
  51       11       48 1
  52       11       49 1
  53       13       50 1
  54       14       51 1
  55       17       52 1
  56       18       53 1
  57       23       54 1
  58       23       55 1
  59       24       56 1
  60       24       57 1
  61       25       58 1
  62       25       59 1
  63       27       60 1
  64       27       61 1
  65       28       62 1
  66       28       63 1
  67       29       64 1
  68       29       65 1
  69       29       66 1
  70       32       67 1
  71       32       68 1
  72       34       69 1
  73       34       70 1
  74       34       71 1

@<TRIPOS>MOLECULE

  71   74
SMALL
USER_CHARGES
@<TRIPOS>ATOM
   1 C1           0.1709     7.3653    -3.7739 C.3          1    LIG   0.0000
   2 C2          -0.7125     6.8803    -2.6360 C.3          1    LIG   0.0000
   3 C3          -0.3400     5.4504    -2.2794 C.3          1    LIG   0.0000
   4 C4          -1.2234     4.9655    -1.1415 C.3          1    LIG   0.0000
   5 N5          -0.8626     3.5805    -0.7961 N.pl3        1    LIG   0.0000
   6 C6           0.0807     3.2394     0.1249 C.2          1    LIG   0.0000
   7 C7           0.1071     1.8773     0.1382 C.2          1    LIG   0.0000
   8 C8           1.0000     1.0000     1.0000 C.3          1    LIG   0.0000
   9 N9           1.8482     1.8482     1.8482 N.pl3        1    LIG   0.0000
  10 C10          1.5418     2.3018     3.0937 C.2          1    LIG   0.0000
  11 C11          0.2662     2.0264     3.8727 C.3          1    LIG   0.0000
  12 C12         -0.0183     0.5332     3.8674 C.ar         1    LIG   0.0000
  13 C13         -0.7934    -0.0150     2.8513 C.ar         1    LIG   0.0000
  14 C14         -1.0588    -1.3804     2.8384 C.ar         1    LIG   0.0000
  15 C15         -0.5413    -2.1818     3.8509 C.ar         1    LIG   0.0000
  16 Cl16        -0.8771    -3.9296     3.8414 Cl           1    LIG   0.0000
  17 C17          0.2342    -1.6424     4.8718 C.ar         1    LIG   0.0000
  18 C18          0.4947    -0.2752     4.8757 C.ar         1    LIG   0.0000
  19 N19          2.5625     3.0205     3.4945 N.2          1    LIG   0.0000
  20 N20          3.4901     3.0421     2.5542 N.2          1    LIG   0.0000
  21 C21          3.0824     2.3287     1.5337 C.2          1    LIG   0.0000
  22 N22          3.7883     2.1005     0.3448 N.pl3        1    LIG   0.0000
  23 C23          5.1235     2.6871     0.1576 C.3          1    LIG   0.0000
  24 C24          5.0042     4.0680    -0.4568 C.3          1    LIG   0.0000
  25 C25          3.7719     4.0496    -1.3442 C.3          1    LIG   0.0000
  26 N26          3.9290     3.0613    -2.4211 N.am         1    LIG   0.0000
  27 C27          4.3673     3.4638    -3.7653 C.3          1    LIG   0.0000
  28 C28          5.8842     3.4050    -3.8424 C.3          1    LIG   0.0000
  29 C29          6.3374     3.8212    -5.2322 C.3          1    LIG   0.0000
  30 C30          3.6499     1.7221    -2.1193 C.2          1    LIG   0.0000
  31 O31          3.7595     0.8799    -2.9957 O.2          1    LIG   0.0000
  32 C32          3.2148     1.2755    -0.7299 C.3          1    LIG   0.0000
  33 C33         -0.8427     1.4309    -0.8028 C.2          1    LIG   0.0000
  34 C34         -1.1713    -0.0121    -1.1472 C.3          1    LIG   0.0000
  35 N35         -1.3914     2.4998    -1.3278 N.2          1    LIG   0.0000
  36 H           -0.0742     8.3060    -4.0085 H            1    LIG   0.0000
  37 H            1.1291     7.3314    -3.4897 H            1    LIG   0.0000
  38 H            0.0390     6.7775    -4.5721 H            1    LIG   0.0000
  39 H           -0.5806     7.4681    -1.8378 H            1    LIG   0.0000
  40 H           -1.6707     6.9142    -2.9202 H            1    LIG   0.0000
  41 H           -0.4719     4.8627    -3.0776 H            1    LIG   0.0000
  42 H            0.6182     5.4166    -1.9953 H            1    LIG   0.0000
  43 H           -1.0915     5.5533    -0.3434 H            1    LIG   0.0000
  44 H           -2.1816     4.9993    -1.4257 H            1    LIG   0.0000
  45 H            0.6380     3.8597     0.6767 H            1    LIG   0.0000
  46 H            0.4329     0.4125     1.5773 H            1    LIG   0.0000
  47 H            1.5773     0.4329     0.4125 H            1    LIG   0.0000
  48 H            0.3768     2.3413     4.8154 H            1    LIG   0.0000
  49 H           -0.4964     2.5126     3.4461 H            1    LIG   0.0000
  50 H           -1.1600     0.5725     2.1299 H            1    LIG   0.0000
  51 H           -1.6148    -1.7810     2.1101 H            1    LIG   0.0000
  52 H            0.5999    -2.2295     5.5940 H            1    LIG   0.0000
  53 H            1.0509     0.1257     5.6037 H            1    LIG   0.0000
  54 H            5.6605     2.1006    -0.4487 H            1    LIG   0.0000
  55 H            5.5809     2.7579     1.0441 H            1    LIG   0.0000
  56 H            5.8173     4.2737    -1.0013 H            1    LIG   0.0000
  57 H            4.9009     4.7563     0.2612 H            1    LIG   0.0000
  58 H            2.9725     3.8114    -0.7926 H            1    LIG   0.0000
  59 H            3.6417     4.9562    -1.7456 H            1    LIG   0.0000
  60 H            4.0601     4.3973    -3.9505 H            1    LIG   0.0000
  61 H            3.9747     2.8429    -4.4438 H            1    LIG   0.0000
  62 H            6.1914     2.4715    -3.6572 H            1    LIG   0.0000
  63 H            6.2768     4.0259    -3.1639 H            1    LIG   0.0000
  64 H            7.3354     3.7825    -5.2829 H            1    LIG   0.0000
  65 H            5.9449     3.2003    -5.9107 H            1    LIG   0.0000
  66 H            6.0302     4.7546    -5.4174 H            1    LIG   0.0000
  67 H            2.2177     1.3294    -0.6755 H            1    LIG   0.0000
  68 H            3.5053     0.3283    -0.5941 H            1    LIG   0.0000
  69 H           -0.6033    -0.6238    -0.5966 H            1    LIG   0.0000
  70 H           -2.1363    -0.1894    -0.9542 H            1    LIG   0.0000
  71 H           -0.9904    -0.1726    -2.1175 H            1    LIG   0.0000
@<TRIPOS>BOND
   1        1        2 1
   2        2        3 1
   3        3        4 1
   4        4        5 1
   5        5        6 1
   6        6        7 2
   7        7        8 1
   8        8        9 1
   9        9       10 1
  10       10       11 1
  11       11       12 1
  12       12       13 ar
  13       13       14 ar
  14       14       15 ar
  15       15       16 1
  16       15       17 ar
  17       17       18 ar
  18       18       12 ar
  19       10       19 2
  20       19       20 1
  21       20       21 2
  22       21        9 1
  23       21       22 1
  24       22       23 1
  25       23       24 1
  26       24       25 1
  27       25       26 1
  28       26       27 1
  29       27       28 1
  30       28       29 1
  31       26       30 am
  32       30       31 2
  33       30       32 1
  34       32       22 1
  35        7       33 1
  36       33       34 1
  37       33       35 2
  38       35        5 1
  39        1       36 1
  40        1       37 1
  41        1       38 1
  42        2       39 1
  43        2       40 1
  44        3       41 1
  45        3       42 1
  46        4       43 1
  47        4       44 1
  48        6       45 1
  49        8       46 1
  50        8       47 1
  51       11       48 1
  52       11       49 1
  53       13       50 1
  54       14       51 1
  55       17       52 1
  56       18       53 1
  57       23       54 1
  58       23       55 1
  59       24       56 1
  60       24       57 1
  61       25       58 1
  62       25       59 1
  63       27       60 1
  64       27       61 1
  65       28       62 1
  66       28       63 1
  67       29       64 1
  68       29       65 1
  69       29       66 1
  70       32       67 1
  71       32       68 1
  72       34       69 1
  73       34       70 1
  74       34       71 1

@<TRIPOS>MOLECULE

  71   74
SMALL
USER_CHARGES
@<TRIPOS>ATOM
   1 C1          -6.1562     4.1866    -0.0243 C.3          1    LIG   0.0000
   2 C2          -4.8485     4.7849    -0.5166 C.3          1    LIG   0.0000
   3 C3          -3.7722     3.7117    -0.5262 C.3          1    LIG   0.0000
   4 C4          -2.4015     4.3688    -0.5283 C.3          1    LIG   0.0000
   5 N5          -1.3590     3.3293    -0.5376 N.pl3        1    LIG   0.0000
   6 C6          -0.8062     2.7858     0.5819 C.2          1    LIG   0.0000
   7 C7           0.1071     1.8773     0.1382 C.2          1    LIG   0.0000
   8 C8           1.0000     1.0000     1.0000 C.3          1    LIG   0.0000
   9 N9           1.8482     1.8482     1.8482 N.pl3        1    LIG   0.0000
  10 C10          1.5418     2.3018     3.0937 C.2          1    LIG   0.0000
  11 C11          0.2662     2.0264     3.8727 C.3          1    LIG   0.0000
  12 C12         -0.0183     0.5332     3.8674 C.ar         1    LIG   0.0000
  13 C13         -0.7934    -0.0150     2.8513 C.ar         1    LIG   0.0000
  14 C14         -1.0588    -1.3804     2.8384 C.ar         1    LIG   0.0000
  15 C15         -0.5413    -2.1818     3.8509 C.ar         1    LIG   0.0000
  16 Cl16        -0.8771    -3.9296     3.8414 Cl           1    LIG   0.0000
  17 C17          0.2342    -1.6424     4.8718 C.ar         1    LIG   0.0000
  18 C18          0.4947    -0.2752     4.8757 C.ar         1    LIG   0.0000
  19 N19          2.5625     3.0205     3.4945 N.2          1    LIG   0.0000
  20 N20          3.4901     3.0421     2.5542 N.2          1    LIG   0.0000
  21 C21          3.0824     2.3287     1.5337 C.2          1    LIG   0.0000
  22 N22          3.7883     2.1005     0.3448 N.pl3        1    LIG   0.0000
  23 C23          5.1235     2.6871     0.1576 C.3          1    LIG   0.0000
  24 C24          5.0042     4.0680    -0.4568 C.3          1    LIG   0.0000
  25 C25          3.7719     4.0496    -1.3442 C.3          1    LIG   0.0000
  26 N26          3.9290     3.0613    -2.4211 N.am         1    LIG   0.0000
  27 C27          4.3673     3.4638    -3.7653 C.3          1    LIG   0.0000
  28 C28          5.8842     3.4050    -3.8424 C.3          1    LIG   0.0000
  29 C29          6.3374     3.8212    -5.2322 C.3          1    LIG   0.0000
  30 C30          3.6499     1.7221    -2.1193 C.2          1    LIG   0.0000
  31 O31          3.7595     0.8799    -2.9957 O.2          1    LIG   0.0000
  32 C32          3.2148     1.2755    -0.7299 C.3          1    LIG   0.0000
  33 C33          0.0768     1.9071    -1.2707 C.2          1    LIG   0.0000
  34 C34          0.9240     1.0713    -2.2153 C.3          1    LIG   0.0000
  35 N35         -0.8234     2.7964    -1.6144 N.2          1    LIG   0.0000
  36 H           -6.8643     4.8926    -0.0180 H            1    LIG   0.0000
  37 H           -6.4325     3.4428    -0.6329 H            1    LIG   0.0000
  38 H           -6.0321     3.8307     0.9020 H            1    LIG   0.0000
  39 H           -4.9726     5.1408    -1.4428 H            1    LIG   0.0000
  40 H           -4.5722     5.5287     0.0921 H            1    LIG   0.0000
  41 H           -3.8658     3.1384     0.2878 H            1    LIG   0.0000
  42 H           -3.8722     3.1466    -1.3452 H            1    LIG   0.0000
  43 H           -2.3079     4.9420    -1.3423 H            1    LIG   0.0000
  44 H           -2.3015     4.9339     0.2906 H            1    LIG   0.0000
  45 H           -1.0251     3.0074     1.5322 H            1    LIG   0.0000
  46 H            0.4329     0.4125     1.5773 H            1    LIG   0.0000
  47 H            1.5773     0.4329     0.4125 H            1    LIG   0.0000
  48 H            0.3768     2.3413     4.8154 H            1    LIG   0.0000
  49 H           -0.4964     2.5126     3.4461 H            1    LIG   0.0000
  50 H           -1.1600     0.5725     2.1299 H            1    LIG   0.0000
  51 H           -1.6148    -1.7810     2.1101 H            1    LIG   0.0000
  52 H            0.5999    -2.2295     5.5940 H            1    LIG   0.0000
  53 H            1.0509     0.1257     5.6037 H            1    LIG   0.0000
  54 H            5.6605     2.1006    -0.4487 H            1    LIG   0.0000
  55 H            5.5809     2.7579     1.0441 H            1    LIG   0.0000
  56 H            5.8173     4.2737    -1.0013 H            1    LIG   0.0000
  57 H            4.9009     4.7563     0.2612 H            1    LIG   0.0000
  58 H            2.9725     3.8114    -0.7926 H            1    LIG   0.0000
  59 H            3.6417     4.9562    -1.7456 H            1    LIG   0.0000
  60 H            4.0601     4.3973    -3.9505 H            1    LIG   0.0000
  61 H            3.9747     2.8429    -4.4438 H            1    LIG   0.0000
  62 H            6.1914     2.4715    -3.6572 H            1    LIG   0.0000
  63 H            6.2768     4.0259    -3.1639 H            1    LIG   0.0000
  64 H            7.3354     3.7825    -5.2829 H            1    LIG   0.0000
  65 H            5.9449     3.2003    -5.9107 H            1    LIG   0.0000
  66 H            6.0302     4.7546    -5.4174 H            1    LIG   0.0000
  67 H            2.2177     1.3294    -0.6755 H            1    LIG   0.0000
  68 H            3.5053     0.3283    -0.5941 H            1    LIG   0.0000
  69 H            1.5266     0.4757    -1.6841 H            1    LIG   0.0000
  70 H            0.3277     0.5130    -2.7922 H            1    LIG   0.0000
  71 H            1.4752     1.6749    -2.7913 H            1    LIG   0.0000
@<TRIPOS>BOND
   1        1        2 1
   2        2        3 1
   3        3        4 1
   4        4        5 1
   5        5        6 1
   6        6        7 2
   7        7        8 1
   8        8        9 1
   9        9       10 1
  10       10       11 1
  11       11       12 1
  12       12       13 ar
  13       13       14 ar
  14       14       15 ar
  15       15       16 1
  16       15       17 ar
  17       17       18 ar
  18       18       12 ar
  19       10       19 2
  20       19       20 1
  21       20       21 2
  22       21        9 1
  23       21       22 1
  24       22       23 1
  25       23       24 1
  26       24       25 1
  27       25       26 1
  28       26       27 1
  29       27       28 1
  30       28       29 1
  31       26       30 am
  32       30       31 2
  33       30       32 1
  34       32       22 1
  35        7       33 1
  36       33       34 1
  37       33       35 2
  38       35        5 1
  39        1       36 1
  40        1       37 1
  41        1       38 1
  42        2       39 1
  43        2       40 1
  44        3       41 1
  45        3       42 1
  46        4       43 1
  47        4       44 1
  48        6       45 1
  49        8       46 1
  50        8       47 1
  51       11       48 1
  52       11       49 1
  53       13       50 1
  54       14       51 1
  55       17       52 1
  56       18       53 1
  57       23       54 1
  58       23       55 1
  59       24       56 1
  60       24       57 1
  61       25       58 1
  62       25       59 1
  63       27       60 1
  64       27       61 1
  65       28       62 1
  66       28       63 1
  67       29       64 1
  68       29       65 1
  69       29       66 1
  70       32       67 1
  71       32       68 1
  72       34       69 1
  73       34       70 1
  74       34       71 1

@<TRIPOS>MOLECULE

  71   74
SMALL
USER_CHARGES
@<TRIPOS>ATOM
   1 C1          -1.6381     3.0826    -6.2593 C.3          1    LIG   0.0000
   2 C2          -1.2182     3.9563    -5.0886 C.3          1    LIG   0.0000
   3 C3          -1.1441     3.1118    -3.8270 C.3          1    LIG   0.0000
   4 C4          -0.7243     3.9855    -2.6563 C.3          1    LIG   0.0000
   5 N5          -0.6525     3.1675    -1.4343 N.pl3        1    LIG   0.0000
   6 C6           0.4627     2.5070    -1.0165 C.2          1    LIG   0.0000
   7 C7           0.1071     1.8773     0.1382 C.2          1    LIG   0.0000
   8 C8           1.0000     1.0000     1.0000 C.3          1    LIG   0.0000
   9 N9           1.8482     1.8482     1.8482 N.pl3        1    LIG   0.0000
  10 C10          1.5418     2.3018     3.0937 C.2          1    LIG   0.0000
  11 C11          0.2662     2.0264     3.8727 C.3          1    LIG   0.0000
  12 C12          0.3376     2.7201     5.2233 C.ar         1    LIG   0.0000
  13 C13          0.8763     2.0468     6.3141 C.ar         1    LIG   0.0000
  14 C14          0.9457     2.6739     7.5538 C.ar         1    LIG   0.0000
  15 C15          0.4702     3.9747     7.6837 C.ar         1    LIG   0.0000
  16 Cl16         0.5551     4.7836     9.2667 Cl           1    LIG   0.0000
  17 C17         -0.0712     4.6560     6.5985 C.ar         1    LIG   0.0000
  18 C18         -0.1356     4.0203     5.3621 C.ar         1    LIG   0.0000
  19 N19          2.5625     3.0205     3.4945 N.2          1    LIG   0.0000
  20 N20          3.4901     3.0421     2.5542 N.2          1    LIG   0.0000
  21 C21          3.0824     2.3287     1.5337 C.2          1    LIG   0.0000
  22 N22          3.7883     2.1005     0.3448 N.pl3        1    LIG   0.0000
  23 C23          5.1235     2.6871     0.1576 C.3          1    LIG   0.0000
  24 C24          5.0042     4.0680    -0.4568 C.3          1    LIG   0.0000
  25 C25          3.7719     4.0496    -1.3442 C.3          1    LIG   0.0000
  26 N26          3.9290     3.0613    -2.4211 N.am         1    LIG   0.0000
  27 C27          4.3673     3.4638    -3.7653 C.3          1    LIG   0.0000
  28 C28          5.8842     3.4050    -3.8424 C.3          1    LIG   0.0000
  29 C29          6.3374     3.8212    -5.2322 C.3          1    LIG   0.0000
  30 C30          3.6499     1.7221    -2.1193 C.2          1    LIG   0.0000
  31 O31          3.7595     0.8799    -2.9957 O.2          1    LIG   0.0000
  32 C32          3.2148     1.2755    -0.7299 C.3          1    LIG   0.0000
  33 C33         -1.2469     2.1836     0.3822 C.2          1    LIG   0.0000
  34 C34         -2.0898     1.7051     1.5525 C.3          1    LIG   0.0000
  35 N35         -1.6444     2.9619    -0.5952 N.2          1    LIG   0.0000
  36 H           -1.6868     3.6382    -7.0893 H            1    LIG   0.0000
  37 H           -0.9680     2.3513    -6.3866 H            1    LIG   0.0000
  38 H           -2.5356     2.6833    -6.0723 H            1    LIG   0.0000
  39 H           -0.3206     4.3555    -5.2757 H            1    LIG   0.0000
  40 H           -1.8883     4.6876    -4.9613 H            1    LIG   0.0000
  41 H           -2.0417     2.7126    -3.6399 H            1    LIG   0.0000
  42 H           -0.4740     2.3805    -3.9543 H            1    LIG   0.0000
  43 H            0.1733     4.3848    -2.8433 H            1    LIG   0.0000
  44 H           -1.3944     4.7168    -2.5290 H            1    LIG   0.0000
  45 H            1.3567     2.4880    -1.4642 H            1    LIG   0.0000
  46 H            0.4329     0.4125     1.5773 H            1    LIG   0.0000
  47 H            1.5773     0.4329     0.4125 H            1    LIG   0.0000
  48 H           -0.5189     2.3742     3.3603 H            1    LIG   0.0000
  49 H            0.1652     1.0409     4.0091 H            1    LIG   0.0000
  50 H            1.2138     1.1115     6.2073 H            1    LIG   0.0000
  51 H            1.3327     2.1954     8.3421 H            1    LIG   0.0000
  52 H           -0.4098     5.5908     6.7054 H            1    LIG   0.0000
  53 H           -0.5223     4.4985     4.5736 H            1    LIG   0.0000
  54 H            5.6605     2.1006    -0.4487 H            1    LIG   0.0000
  55 H            5.5809     2.7579     1.0441 H            1    LIG   0.0000
  56 H            5.8173     4.2737    -1.0013 H            1    LIG   0.0000
  57 H            4.9009     4.7563     0.2612 H            1    LIG   0.0000
  58 H            2.9725     3.8114    -0.7926 H            1    LIG   0.0000
  59 H            3.6417     4.9562    -1.7456 H            1    LIG   0.0000
  60 H            4.0601     4.3973    -3.9505 H            1    LIG   0.0000
  61 H            3.9747     2.8429    -4.4438 H            1    LIG   0.0000
  62 H            6.1914     2.4715    -3.6572 H            1    LIG   0.0000
  63 H            6.2768     4.0259    -3.1639 H            1    LIG   0.0000
  64 H            7.3354     3.7825    -5.2829 H            1    LIG   0.0000
  65 H            5.9449     3.2003    -5.9107 H            1    LIG   0.0000
  66 H            6.0302     4.7546    -5.4174 H            1    LIG   0.0000
  67 H            2.2177     1.3294    -0.6755 H            1    LIG   0.0000
  68 H            3.5053     0.3283    -0.5941 H            1    LIG   0.0000
  69 H           -1.5347     1.1237     2.1474 H            1    LIG   0.0000
  70 H           -2.4192     2.4943     2.0708 H            1    LIG   0.0000
  71 H           -2.8702     1.1823     1.2094 H            1    LIG   0.0000
@<TRIPOS>BOND
   1        1        2 1
   2        2        3 1
   3        3        4 1
   4        4        5 1
   5        5        6 1
   6        6        7 2
   7        7        8 1
   8        8        9 1
   9        9       10 1
  10       10       11 1
  11       11       12 1
  12       12       13 ar
  13       13       14 ar
  14       14       15 ar
  15       15       16 1
  16       15       17 ar
  17       17       18 ar
  18       18       12 ar
  19       10       19 2
  20       19       20 1
  21       20       21 2
  22       21        9 1
  23       21       22 1
  24       22       23 1
  25       23       24 1
  26       24       25 1
  27       25       26 1
  28       26       27 1
  29       27       28 1
  30       28       29 1
  31       26       30 am
  32       30       31 2
  33       30       32 1
  34       32       22 1
  35        7       33 1
  36       33       34 1
  37       33       35 2
  38       35        5 1
  39        1       36 1
  40        1       37 1
  41        1       38 1
  42        2       39 1
  43        2       40 1
  44        3       41 1
  45        3       42 1
  46        4       43 1
  47        4       44 1
  48        6       45 1
  49        8       46 1
  50        8       47 1
  51       11       48 1
  52       11       49 1
  53       13       50 1
  54       14       51 1
  55       17       52 1
  56       18       53 1
  57       23       54 1
  58       23       55 1
  59       24       56 1
  60       24       57 1
  61       25       58 1
  62       25       59 1
  63       27       60 1
  64       27       61 1
  65       28       62 1
  66       28       63 1
  67       29       64 1
  68       29       65 1
  69       29       66 1
  70       32       67 1
  71       32       68 1
  72       34       69 1
  73       34       70 1
  74       34       71 1

@<TRIPOS>MOLECULE

  71   74
SMALL
USER_CHARGES
@<TRIPOS>ATOM
   1 C1          -3.8594     7.3319     0.3022 C.3          1    LIG   0.0000
   2 C2          -2.7277     6.8636    -0.5980 C.3          1    LIG   0.0000
   3 C3          -2.3552     5.4337    -0.2414 C.3          1    LIG   0.0000
   4 C4          -1.2234     4.9655    -1.1415 C.3          1    LIG   0.0000
   5 N5          -0.8626     3.5805    -0.7961 N.pl3        1    LIG   0.0000
   6 C6           0.0807     3.2394     0.1249 C.2          1    LIG   0.0000
   7 C7           0.1071     1.8773     0.1382 C.2          1    LIG   0.0000
   8 C8           1.0000     1.0000     1.0000 C.3          1    LIG   0.0000
   9 N9           1.8482     1.8482     1.8482 N.pl3        1    LIG   0.0000
  10 C10          1.5418     2.3018     3.0937 C.2          1    LIG   0.0000
  11 C11          0.2662     2.0264     3.8727 C.3          1    LIG   0.0000
  12 C12         -0.6556     1.1490     3.0415 C.ar         1    LIG   0.0000
  13 C13         -1.5788     1.7393     2.1855 C.ar         1    LIG   0.0000
  14 C14         -2.4263     0.9442     1.4210 C.ar         1    LIG   0.0000
  15 C15         -2.3367    -0.4399     1.5269 C.ar         1    LIG   0.0000
  16 Cl16        -3.4181    -1.4640     0.5524 Cl           1    LIG   0.0000
  17 C17         -1.4172    -1.0396     2.3810 C.ar         1    LIG   0.0000
  18 C18         -0.5731    -0.2355     3.1413 C.ar         1    LIG   0.0000
  19 N19          2.5625     3.0205     3.4945 N.2          1    LIG   0.0000
  20 N20          3.4901     3.0421     2.5542 N.2          1    LIG   0.0000
  21 C21          3.0824     2.3287     1.5337 C.2          1    LIG   0.0000
  22 N22          3.7883     2.1005     0.3448 N.pl3        1    LIG   0.0000
  23 C23          5.1235     2.6871     0.1576 C.3          1    LIG   0.0000
  24 C24          5.0042     4.0680    -0.4568 C.3          1    LIG   0.0000
  25 C25          3.7719     4.0496    -1.3442 C.3          1    LIG   0.0000
  26 N26          3.9290     3.0613    -2.4211 N.am         1    LIG   0.0000
  27 C27          4.3673     3.4638    -3.7653 C.3          1    LIG   0.0000
  28 C28          5.8842     3.4050    -3.8424 C.3          1    LIG   0.0000
  29 C29          6.3374     3.8212    -5.2322 C.3          1    LIG   0.0000
  30 C30          3.6499     1.7221    -2.1193 C.2          1    LIG   0.0000
  31 O31          3.7595     0.8799    -2.9957 O.2          1    LIG   0.0000
  32 C32          3.2148     1.2755    -0.7299 C.3          1    LIG   0.0000
  33 C33         -0.8427     1.4309    -0.8028 C.2          1    LIG   0.0000
  34 C34         -1.1713    -0.0121    -1.1472 C.3          1    LIG   0.0000
  35 N35         -1.3914     2.4998    -1.3278 N.2          1    LIG   0.0000
  36 H           -4.1045     8.2726     0.0676 H            1    LIG   0.0000
  37 H           -4.6542     6.7386     0.1744 H            1    LIG   0.0000
  38 H           -3.5641     7.2925     1.2568 H            1    LIG   0.0000
  39 H           -3.0230     6.9029    -1.5526 H            1    LIG   0.0000
  40 H           -1.9329     7.4569    -0.4702 H            1    LIG   0.0000
  41 H           -2.0599     5.3944     0.7132 H            1    LIG   0.0000
  42 H           -3.1500     4.8405    -0.3692 H            1    LIG   0.0000
  43 H           -1.5187     5.0048    -2.0961 H            1    LIG   0.0000
  44 H           -0.4286     5.5587    -1.0138 H            1    LIG   0.0000
  45 H            0.6380     3.8597     0.6767 H            1    LIG   0.0000
  46 H            0.4329     0.4125     1.5773 H            1    LIG   0.0000
  47 H            1.5773     0.4329     0.4125 H            1    LIG   0.0000
  48 H            0.4919     1.5577     4.7268 H            1    LIG   0.0000
  49 H           -0.1922     2.8910     4.0780 H            1    LIG   0.0000
  50 H           -1.6334     2.7357     2.1195 H            1    LIG   0.0000
  51 H           -3.0918     1.3625     0.8029 H            1    LIG   0.0000
  52 H           -1.3633    -2.0359     2.4480 H            1    LIG   0.0000
  53 H            0.0928    -0.6535     3.7594 H            1    LIG   0.0000
  54 H            5.6605     2.1006    -0.4487 H            1    LIG   0.0000
  55 H            5.5809     2.7579     1.0441 H            1    LIG   0.0000
  56 H            5.8173     4.2737    -1.0013 H            1    LIG   0.0000
  57 H            4.9009     4.7563     0.2612 H            1    LIG   0.0000
  58 H            2.9725     3.8114    -0.7926 H            1    LIG   0.0000
  59 H            3.6417     4.9562    -1.7456 H            1    LIG   0.0000
  60 H            4.0601     4.3973    -3.9505 H            1    LIG   0.0000
  61 H            3.9747     2.8429    -4.4438 H            1    LIG   0.0000
  62 H            6.1914     2.4715    -3.6572 H            1    LIG   0.0000
  63 H            6.2768     4.0259    -3.1639 H            1    LIG   0.0000
  64 H            7.3354     3.7825    -5.2829 H            1    LIG   0.0000
  65 H            5.9449     3.2003    -5.9107 H            1    LIG   0.0000
  66 H            6.0302     4.7546    -5.4174 H            1    LIG   0.0000
  67 H            2.2177     1.3294    -0.6755 H            1    LIG   0.0000
  68 H            3.5053     0.3283    -0.5941 H            1    LIG   0.0000
  69 H           -0.6033    -0.6238    -0.5966 H            1    LIG   0.0000
  70 H           -2.1363    -0.1894    -0.9542 H            1    LIG   0.0000
  71 H           -0.9904    -0.1726    -2.1175 H            1    LIG   0.0000
@<TRIPOS>BOND
   1        1        2 1
   2        2        3 1
   3        3        4 1
   4        4        5 1
   5        5        6 1
   6        6        7 2
   7        7        8 1
   8        8        9 1
   9        9       10 1
  10       10       11 1
  11       11       12 1
  12       12       13 ar
  13       13       14 ar
  14       14       15 ar
  15       15       16 1
  16       15       17 ar
  17       17       18 ar
  18       18       12 ar
  19       10       19 2
  20       19       20 1
  21       20       21 2
  22       21        9 1
  23       21       22 1
  24       22       23 1
  25       23       24 1
  26       24       25 1
  27       25       26 1
  28       26       27 1
  29       27       28 1
  30       28       29 1
  31       26       30 am
  32       30       31 2
  33       30       32 1
  34       32       22 1
  35        7       33 1
  36       33       34 1
  37       33       35 2
  38       35        5 1
  39        1       36 1
  40        1       37 1
  41        1       38 1
  42        2       39 1
  43        2       40 1
  44        3       41 1
  45        3       42 1
  46        4       43 1
  47        4       44 1
  48        6       45 1
  49        8       46 1
  50        8       47 1
  51       11       48 1
  52       11       49 1
  53       13       50 1
  54       14       51 1
  55       17       52 1
  56       18       53 1
  57       23       54 1
  58       23       55 1
  59       24       56 1
  60       24       57 1
  61       25       58 1
  62       25       59 1
  63       27       60 1
  64       27       61 1
  65       28       62 1
  66       28       63 1
  67       29       64 1
  68       29       65 1
  69       29       66 1
  70       32       67 1
  71       32       68 1
  72       34       69 1
  73       34       70 1
  74       34       71 1

@<TRIPOS>MOLECULE

  71   74
SMALL
USER_CHARGES
@<TRIPOS>ATOM
   1 C1           0.1709     7.3653    -3.7739 C.3          1    LIG   0.0000
   2 C2          -0.7125     6.8803    -2.6360 C.3          1    LIG   0.0000
   3 C3          -0.3400     5.4504    -2.2794 C.3          1    LIG   0.0000
   4 C4          -1.2234     4.9655    -1.1415 C.3          1    LIG   0.0000
   5 N5          -0.8626     3.5805    -0.7961 N.pl3        1    LIG   0.0000
   6 C6           0.0807     3.2394     0.1249 C.2          1    LIG   0.0000
   7 C7           0.1071     1.8773     0.1382 C.2          1    LIG   0.0000
   8 C8           1.0000     1.0000     1.0000 C.3          1    LIG   0.0000
   9 N9           1.8482     1.8482     1.8482 N.pl3        1    LIG   0.0000
  10 C10          1.5418     2.3018     3.0937 C.2          1    LIG   0.0000
  11 C11          0.2662     2.0264     3.8727 C.3          1    LIG   0.0000
  12 C12         -0.7594     3.1047     3.5630 C.ar         1    LIG   0.0000
  13 C13         -0.8041     4.2548     4.3432 C.ar         1    LIG   0.0000
  14 C14         -1.7393     5.2469     4.0671 C.ar         1    LIG   0.0000
  15 C15         -2.6225     5.0705     3.0070 C.ar         1    LIG   0.0000
  16 Cl16        -3.8223     6.3351     2.6478 Cl           1    LIG   0.0000
  17 C17         -2.5860     3.9231     2.2216 C.ar         1    LIG   0.0000
  18 C18         -1.6463     2.9364     2.5054 C.ar         1    LIG   0.0000
  19 N19          2.5625     3.0205     3.4945 N.2          1    LIG   0.0000
  20 N20          3.4901     3.0421     2.5542 N.2          1    LIG   0.0000
  21 C21          3.0824     2.3287     1.5337 C.2          1    LIG   0.0000
  22 N22          3.7883     2.1005     0.3448 N.pl3        1    LIG   0.0000
  23 C23          5.1235     2.6871     0.1576 C.3          1    LIG   0.0000
  24 C24          5.0042     4.0680    -0.4568 C.3          1    LIG   0.0000
  25 C25          3.7719     4.0496    -1.3442 C.3          1    LIG   0.0000
  26 N26          3.9290     3.0613    -2.4211 N.am         1    LIG   0.0000
  27 C27          4.3673     3.4638    -3.7653 C.3          1    LIG   0.0000
  28 C28          5.8842     3.4050    -3.8424 C.3          1    LIG   0.0000
  29 C29          6.3374     3.8212    -5.2322 C.3          1    LIG   0.0000
  30 C30          3.6499     1.7221    -2.1193 C.2          1    LIG   0.0000
  31 O31          3.7595     0.8799    -2.9957 O.2          1    LIG   0.0000
  32 C32          3.2148     1.2755    -0.7299 C.3          1    LIG   0.0000
  33 C33         -0.8427     1.4309    -0.8028 C.2          1    LIG   0.0000
  34 C34         -1.1713    -0.0121    -1.1472 C.3          1    LIG   0.0000
  35 N35         -1.3914     2.4998    -1.3278 N.2          1    LIG   0.0000
  36 H           -0.0742     8.3060    -4.0085 H            1    LIG   0.0000
  37 H            1.1291     7.3314    -3.4897 H            1    LIG   0.0000
  38 H            0.0390     6.7775    -4.5721 H            1    LIG   0.0000
  39 H           -0.5806     7.4681    -1.8378 H            1    LIG   0.0000
  40 H           -1.6707     6.9142    -2.9202 H            1    LIG   0.0000
  41 H           -0.4719     4.8627    -3.0776 H            1    LIG   0.0000
  42 H            0.6182     5.4166    -1.9953 H            1    LIG   0.0000
  43 H           -1.0915     5.5533    -0.3434 H            1    LIG   0.0000
  44 H           -2.1816     4.9993    -1.4257 H            1    LIG   0.0000
  45 H            0.6380     3.8597     0.6767 H            1    LIG   0.0000
  46 H            0.4329     0.4125     1.5773 H            1    LIG   0.0000
  47 H            1.5773     0.4329     0.4125 H            1    LIG   0.0000
  48 H           -0.0990     1.1335     3.6093 H            1    LIG   0.0000
  49 H            0.4669     2.0287     4.8524 H            1    LIG   0.0000
  50 H           -0.1639     4.3687     5.1030 H            1    LIG   0.0000
  51 H           -1.7761     6.0767     4.6239 H            1    LIG   0.0000
  52 H           -3.2269     3.8085     1.4626 H            1    LIG   0.0000
  53 H           -1.6089     2.1066     1.9487 H            1    LIG   0.0000
  54 H            5.6605     2.1006    -0.4487 H            1    LIG   0.0000
  55 H            5.5809     2.7579     1.0441 H            1    LIG   0.0000
  56 H            5.8173     4.2737    -1.0013 H            1    LIG   0.0000
  57 H            4.9009     4.7563     0.2612 H            1    LIG   0.0000
  58 H            2.9725     3.8114    -0.7926 H            1    LIG   0.0000
  59 H            3.6417     4.9562    -1.7456 H            1    LIG   0.0000
  60 H            4.0601     4.3973    -3.9505 H            1    LIG   0.0000
  61 H            3.9747     2.8429    -4.4438 H            1    LIG   0.0000
  62 H            6.1914     2.4715    -3.6572 H            1    LIG   0.0000
  63 H            6.2768     4.0259    -3.1639 H            1    LIG   0.0000
  64 H            7.3354     3.7825    -5.2829 H            1    LIG   0.0000
  65 H            5.9449     3.2003    -5.9107 H            1    LIG   0.0000
  66 H            6.0302     4.7546    -5.4174 H            1    LIG   0.0000
  67 H            2.2177     1.3294    -0.6755 H            1    LIG   0.0000
  68 H            3.5053     0.3283    -0.5941 H            1    LIG   0.0000
  69 H           -0.6033    -0.6238    -0.5966 H            1    LIG   0.0000
  70 H           -2.1363    -0.1894    -0.9542 H            1    LIG   0.0000
  71 H           -0.9904    -0.1726    -2.1175 H            1    LIG   0.0000
@<TRIPOS>BOND
   1        1        2 1
   2        2        3 1
   3        3        4 1
   4        4        5 1
   5        5        6 1
   6        6        7 2
   7        7        8 1
   8        8        9 1
   9        9       10 1
  10       10       11 1
  11       11       12 1
  12       12       13 ar
  13       13       14 ar
  14       14       15 ar
  15       15       16 1
  16       15       17 ar
  17       17       18 ar
  18       18       12 ar
  19       10       19 2
  20       19       20 1
  21       20       21 2
  22       21        9 1
  23       21       22 1
  24       22       23 1
  25       23       24 1
  26       24       25 1
  27       25       26 1
  28       26       27 1
  29       27       28 1
  30       28       29 1
  31       26       30 am
  32       30       31 2
  33       30       32 1
  34       32       22 1
  35        7       33 1
  36       33       34 1
  37       33       35 2
  38       35        5 1
  39        1       36 1
  40        1       37 1
  41        1       38 1
  42        2       39 1
  43        2       40 1
  44        3       41 1
  45        3       42 1
  46        4       43 1
  47        4       44 1
  48        6       45 1
  49        8       46 1
  50        8       47 1
  51       11       48 1
  52       11       49 1
  53       13       50 1
  54       14       51 1
  55       17       52 1
  56       18       53 1
  57       23       54 1
  58       23       55 1
  59       24       56 1
  60       24       57 1
  61       25       58 1
  62       25       59 1
  63       27       60 1
  64       27       61 1
  65       28       62 1
  66       28       63 1
  67       29       64 1
  68       29       65 1
  69       29       66 1
  70       32       67 1
  71       32       68 1
  72       34       69 1
  73       34       70 1
  74       34       71 1

@<TRIPOS>MOLECULE

  71   74
SMALL
USER_CHARGES
@<TRIPOS>ATOM
   1 C1          -5.9721     3.7972    -1.6725 C.3          1    LIG   0.0000
   2 C2          -4.7684     4.6154    -1.2343 C.3          1    LIG   0.0000
   3 C3          -3.7722     3.7117    -0.5262 C.3          1    LIG   0.0000
   4 C4          -2.4015     4.3688    -0.5283 C.3          1    LIG   0.0000
   5 N5          -1.3590     3.3293    -0.5376 N.pl3        1    LIG   0.0000
   6 C6          -0.8062     2.7858     0.5819 C.2          1    LIG   0.0000
   7 C7           0.1071     1.8773     0.1382 C.2          1    LIG   0.0000
   8 C8           1.0000     1.0000     1.0000 C.3          1    LIG   0.0000
   9 N9           1.8482     1.8482     1.8482 N.pl3        1    LIG   0.0000
  10 C10          1.5418     2.3018     3.0937 C.2          1    LIG   0.0000
  11 C11          0.2662     2.0264     3.8727 C.3          1    LIG   0.0000
  12 C12         -0.7594     3.1047     3.5630 C.ar         1    LIG   0.0000
  13 C13         -0.3957     4.4440     3.6495 C.ar         1    LIG   0.0000
  14 C14         -1.3277     5.4375     3.3679 C.ar         1    LIG   0.0000
  15 C15         -2.6193     5.0723     3.0023 C.ar         1    LIG   0.0000
  16 Cl16        -3.8174     6.3377     2.6409 Cl           1    LIG   0.0000
  17 C17         -2.9925     3.7352     2.9140 C.ar         1    LIG   0.0000
  18 C18         -2.0527     2.7485     3.1971 C.ar         1    LIG   0.0000
  19 N19          2.5625     3.0205     3.4945 N.2          1    LIG   0.0000
  20 N20          3.4901     3.0421     2.5542 N.2          1    LIG   0.0000
  21 C21          3.0824     2.3287     1.5337 C.2          1    LIG   0.0000
  22 N22          3.7883     2.1005     0.3448 N.pl3        1    LIG   0.0000
  23 C23          5.1235     2.6871     0.1576 C.3          1    LIG   0.0000
  24 C24          5.0042     4.0680    -0.4568 C.3          1    LIG   0.0000
  25 C25          3.7719     4.0496    -1.3442 C.3          1    LIG   0.0000
  26 N26          3.9290     3.0613    -2.4211 N.am         1    LIG   0.0000
  27 C27          4.3673     3.4638    -3.7653 C.3          1    LIG   0.0000
  28 C28          5.8842     3.4050    -3.8424 C.3          1    LIG   0.0000
  29 C29          6.3374     3.8212    -5.2322 C.3          1    LIG   0.0000
  30 C30          3.6499     1.7221    -2.1193 C.2          1    LIG   0.0000
  31 O31          3.7595     0.8799    -2.9957 O.2          1    LIG   0.0000
  32 C32          3.2148     1.2755    -0.7299 C.3          1    LIG   0.0000
  33 C33          0.0768     1.9071    -1.2707 C.2          1    LIG   0.0000
  34 C34          0.9240     1.0713    -2.2153 C.3          1    LIG   0.0000
  35 N35         -0.8234     2.7964    -1.6144 N.2          1    LIG   0.0000
  36 H           -6.6275     4.3917    -2.1384 H            1    LIG   0.0000
  37 H           -5.6748     3.0750    -2.2970 H            1    LIG   0.0000
  38 H           -6.4060     3.3867    -0.8705 H            1    LIG   0.0000
  39 H           -4.3345     5.0259    -2.0363 H            1    LIG   0.0000
  40 H           -5.0657     5.3376    -0.6098 H            1    LIG   0.0000
  41 H           -4.0690     3.5629     0.4170 H            1    LIG   0.0000
  42 H           -3.7217     2.8337    -1.0022 H            1    LIG   0.0000
  43 H           -2.3079     4.9420    -1.3423 H            1    LIG   0.0000
  44 H           -2.3015     4.9339     0.2906 H            1    LIG   0.0000
  45 H           -1.0251     3.0074     1.5322 H            1    LIG   0.0000
  46 H            0.4329     0.4125     1.5773 H            1    LIG   0.0000
  47 H            1.5773     0.4329     0.4125 H            1    LIG   0.0000
  48 H           -0.0990     1.1335     3.6093 H            1    LIG   0.0000
  49 H            0.4669     2.0287     4.8524 H            1    LIG   0.0000
  50 H            0.5359     4.6930     3.9143 H            1    LIG   0.0000
  51 H           -1.0724     6.4025     3.4274 H            1    LIG   0.0000
  52 H           -3.9244     3.4861     2.6504 H            1    LIG   0.0000
  53 H           -2.3076     1.7834     3.1374 H            1    LIG   0.0000
  54 H            5.6605     2.1006    -0.4487 H            1    LIG   0.0000
  55 H            5.5809     2.7579     1.0441 H            1    LIG   0.0000
  56 H            5.8173     4.2737    -1.0013 H            1    LIG   0.0000
  57 H            4.9009     4.7563     0.2612 H            1    LIG   0.0000
  58 H            2.9725     3.8114    -0.7926 H            1    LIG   0.0000
  59 H            3.6417     4.9562    -1.7456 H            1    LIG   0.0000
  60 H            4.0601     4.3973    -3.9505 H            1    LIG   0.0000
  61 H            3.9747     2.8429    -4.4438 H            1    LIG   0.0000
  62 H            6.1914     2.4715    -3.6572 H            1    LIG   0.0000
  63 H            6.2768     4.0259    -3.1639 H            1    LIG   0.0000
  64 H            7.3354     3.7825    -5.2829 H            1    LIG   0.0000
  65 H            5.9449     3.2003    -5.9107 H            1    LIG   0.0000
  66 H            6.0302     4.7546    -5.4174 H            1    LIG   0.0000
  67 H            2.2177     1.3294    -0.6755 H            1    LIG   0.0000
  68 H            3.5053     0.3283    -0.5941 H            1    LIG   0.0000
  69 H            1.5266     0.4757    -1.6841 H            1    LIG   0.0000
  70 H            0.3277     0.5130    -2.7922 H            1    LIG   0.0000
  71 H            1.4752     1.6749    -2.7913 H            1    LIG   0.0000
@<TRIPOS>BOND
   1        1        2 1
   2        2        3 1
   3        3        4 1
   4        4        5 1
   5        5        6 1
   6        6        7 2
   7        7        8 1
   8        8        9 1
   9        9       10 1
  10       10       11 1
  11       11       12 1
  12       12       13 ar
  13       13       14 ar
  14       14       15 ar
  15       15       16 1
  16       15       17 ar
  17       17       18 ar
  18       18       12 ar
  19       10       19 2
  20       19       20 1
  21       20       21 2
  22       21        9 1
  23       21       22 1
  24       22       23 1
  25       23       24 1
  26       24       25 1
  27       25       26 1
  28       26       27 1
  29       27       28 1
  30       28       29 1
  31       26       30 am
  32       30       31 2
  33       30       32 1
  34       32       22 1
  35        7       33 1
  36       33       34 1
  37       33       35 2
  38       35        5 1
  39        1       36 1
  40        1       37 1
  41        1       38 1
  42        2       39 1
  43        2       40 1
  44        3       41 1
  45        3       42 1
  46        4       43 1
  47        4       44 1
  48        6       45 1
  49        8       46 1
  50        8       47 1
  51       11       48 1
  52       11       49 1
  53       13       50 1
  54       14       51 1
  55       17       52 1
  56       18       53 1
  57       23       54 1
  58       23       55 1
  59       24       56 1
  60       24       57 1
  61       25       58 1
  62       25       59 1
  63       27       60 1
  64       27       61 1
  65       28       62 1
  66       28       63 1
  67       29       64 1
  68       29       65 1
  69       29       66 1
  70       32       67 1
  71       32       68 1
  72       34       69 1
  73       34       70 1
  74       34       71 1

@<TRIPOS>MOLECULE

  71   74
SMALL
USER_CHARGES
@<TRIPOS>ATOM
   1 C1          -1.6381     3.0826    -6.2593 C.3          1    LIG   0.0000
   2 C2          -1.2182     3.9563    -5.0886 C.3          1    LIG   0.0000
   3 C3          -1.1441     3.1118    -3.8270 C.3          1    LIG   0.0000
   4 C4          -0.7243     3.9855    -2.6563 C.3          1    LIG   0.0000
   5 N5          -0.6525     3.1675    -1.4343 N.pl3        1    LIG   0.0000
   6 C6           0.4627     2.5070    -1.0165 C.2          1    LIG   0.0000
   7 C7           0.1071     1.8773     0.1382 C.2          1    LIG   0.0000
   8 C8           1.0000     1.0000     1.0000 C.3          1    LIG   0.0000
   9 N9           1.8482     1.8482     1.8482 N.pl3        1    LIG   0.0000
  10 C10          1.5418     2.3018     3.0937 C.2          1    LIG   0.0000
  11 C11          0.2662     2.0264     3.8727 C.3          1    LIG   0.0000
  12 C12         -0.7594     3.1047     3.5630 C.ar         1    LIG   0.0000
  13 C13         -0.4352     4.1277     2.6788 C.ar         1    LIG   0.0000
  14 C14         -1.3676     5.1186     2.3894 C.ar         1    LIG   0.0000
  15 C15         -2.6190     5.0705     2.9951 C.ar         1    LIG   0.0000
  16 Cl16        -3.8170     6.3351     2.6304 Cl           1    LIG   0.0000
  17 C17         -2.9520     4.0517     3.8817 C.ar         1    LIG   0.0000
  18 C18         -2.0126     3.0644     4.1642 C.ar         1    LIG   0.0000
  19 N19          2.5625     3.0205     3.4945 N.2          1    LIG   0.0000
  20 N20          3.4901     3.0421     2.5542 N.2          1    LIG   0.0000
  21 C21          3.0824     2.3287     1.5337 C.2          1    LIG   0.0000
  22 N22          3.7883     2.1005     0.3448 N.pl3        1    LIG   0.0000
  23 C23          5.1235     2.6871     0.1576 C.3          1    LIG   0.0000
  24 C24          5.0042     4.0680    -0.4568 C.3          1    LIG   0.0000
  25 C25          3.7719     4.0496    -1.3442 C.3          1    LIG   0.0000
  26 N26          3.9290     3.0613    -2.4211 N.am         1    LIG   0.0000
  27 C27          4.3673     3.4638    -3.7653 C.3          1    LIG   0.0000
  28 C28          5.8842     3.4050    -3.8424 C.3          1    LIG   0.0000
  29 C29          6.3374     3.8212    -5.2322 C.3          1    LIG   0.0000
  30 C30          3.6499     1.7221    -2.1193 C.2          1    LIG   0.0000
  31 O31          3.7595     0.8799    -2.9957 O.2          1    LIG   0.0000
  32 C32          3.2148     1.2755    -0.7299 C.3          1    LIG   0.0000
  33 C33         -1.2469     2.1836     0.3822 C.2          1    LIG   0.0000
  34 C34         -2.0898     1.7051     1.5525 C.3          1    LIG   0.0000
  35 N35         -1.6444     2.9619    -0.5952 N.2          1    LIG   0.0000
  36 H           -1.6868     3.6382    -7.0893 H            1    LIG   0.0000
  37 H           -0.9680     2.3513    -6.3866 H            1    LIG   0.0000
  38 H           -2.5356     2.6833    -6.0723 H            1    LIG   0.0000
  39 H           -0.3206     4.3555    -5.2757 H            1    LIG   0.0000
  40 H           -1.8883     4.6876    -4.9613 H            1    LIG   0.0000
  41 H           -2.0417     2.7126    -3.6399 H            1    LIG   0.0000
  42 H           -0.4740     2.3805    -3.9543 H            1    LIG   0.0000
  43 H            0.1733     4.3848    -2.8433 H            1    LIG   0.0000
  44 H           -1.3944     4.7168    -2.5290 H            1    LIG   0.0000
  45 H            1.3567     2.4880    -1.4642 H            1    LIG   0.0000
  46 H            0.4329     0.4125     1.5773 H            1    LIG   0.0000
  47 H            1.5773     0.4329     0.4125 H            1    LIG   0.0000
  48 H           -0.0990     1.1335     3.6093 H            1    LIG   0.0000
  49 H            0.4669     2.0287     4.8524 H            1    LIG   0.0000
  50 H            0.4683     4.1510     2.2508 H            1    LIG   0.0000
  51 H           -1.1410     5.8566     1.7537 H            1    LIG   0.0000
  52 H           -3.8550     4.0289     4.3106 H            1    LIG   0.0000
  53 H           -2.2388     2.3261     4.7997 H            1    LIG   0.0000
  54 H            5.6605     2.1006    -0.4487 H            1    LIG   0.0000
  55 H            5.5809     2.7579     1.0441 H            1    LIG   0.0000
  56 H            5.8173     4.2737    -1.0013 H            1    LIG   0.0000
  57 H            4.9009     4.7563     0.2612 H            1    LIG   0.0000
  58 H            2.9725     3.8114    -0.7926 H            1    LIG   0.0000
  59 H            3.6417     4.9562    -1.7456 H            1    LIG   0.0000
  60 H            4.0601     4.3973    -3.9505 H            1    LIG   0.0000
  61 H            3.9747     2.8429    -4.4438 H            1    LIG   0.0000
  62 H            6.1914     2.4715    -3.6572 H            1    LIG   0.0000
  63 H            6.2768     4.0259    -3.1639 H            1    LIG   0.0000
  64 H            7.3354     3.7825    -5.2829 H            1    LIG   0.0000
  65 H            5.9449     3.2003    -5.9107 H            1    LIG   0.0000
  66 H            6.0302     4.7546    -5.4174 H            1    LIG   0.0000
  67 H            2.2177     1.3294    -0.6755 H            1    LIG   0.0000
  68 H            3.5053     0.3283    -0.5941 H            1    LIG   0.0000
  69 H           -1.5347     1.1237     2.1474 H            1    LIG   0.0000
  70 H           -2.4192     2.4943     2.0708 H            1    LIG   0.0000
  71 H           -2.8702     1.1823     1.2094 H            1    LIG   0.0000
@<TRIPOS>BOND
   1        1        2 1
   2        2        3 1
   3        3        4 1
   4        4        5 1
   5        5        6 1
   6        6        7 2
   7        7        8 1
   8        8        9 1
   9        9       10 1
  10       10       11 1
  11       11       12 1
  12       12       13 ar
  13       13       14 ar
  14       14       15 ar
  15       15       16 1
  16       15       17 ar
  17       17       18 ar
  18       18       12 ar
  19       10       19 2
  20       19       20 1
  21       20       21 2
  22       21        9 1
  23       21       22 1
  24       22       23 1
  25       23       24 1
  26       24       25 1
  27       25       26 1
  28       26       27 1
  29       27       28 1
  30       28       29 1
  31       26       30 am
  32       30       31 2
  33       30       32 1
  34       32       22 1
  35        7       33 1
  36       33       34 1
  37       33       35 2
  38       35        5 1
  39        1       36 1
  40        1       37 1
  41        1       38 1
  42        2       39 1
  43        2       40 1
  44        3       41 1
  45        3       42 1
  46        4       43 1
  47        4       44 1
  48        6       45 1
  49        8       46 1
  50        8       47 1
  51       11       48 1
  52       11       49 1
  53       13       50 1
  54       14       51 1
  55       17       52 1
  56       18       53 1
  57       23       54 1
  58       23       55 1
  59       24       56 1
  60       24       57 1
  61       25       58 1
  62       25       59 1
  63       27       60 1
  64       27       61 1
  65       28       62 1
  66       28       63 1
  67       29       64 1
  68       29       65 1
  69       29       66 1
  70       32       67 1
  71       32       68 1
  72       34       69 1
  73       34       70 1
  74       34       71 1

@<TRIPOS>MOLECULE

  71   74
SMALL
USER_CHARGES
@<TRIPOS>ATOM
   1 C1           1.7631     3.7522    -5.5099 C.3          1    LIG   0.0000
   2 C2           0.6149     4.3509    -4.7140 C.3          1    LIG   0.0000
   3 C3           0.0509     3.3012    -3.7703 C.3          1    LIG   0.0000
   4 C4          -0.7243     3.9855    -2.6563 C.3          1    LIG   0.0000
   5 N5          -0.6525     3.1675    -1.4343 N.pl3        1    LIG   0.0000
   6 C6           0.4627     2.5070    -1.0165 C.2          1    LIG   0.0000
   7 C7           0.1071     1.8773     0.1382 C.2          1    LIG   0.0000
   8 C8           1.0000     1.0000     1.0000 C.3          1    LIG   0.0000
   9 N9           1.8482     1.8482     1.8482 N.pl3        1    LIG   0.0000
  10 C10          1.5418     2.3018     3.0937 C.2          1    LIG   0.0000
  11 C11          0.2662     2.0264     3.8727 C.3          1    LIG   0.0000
  12 C12         -0.2997     3.3359     4.3974 C.ar         1    LIG   0.0000
  13 C13          0.0909     3.8010     5.6483 C.ar         1    LIG   0.0000
  14 C14         -0.4218     4.9985     6.1365 C.ar         1    LIG   0.0000
  15 C15         -1.3252     5.7165     5.3597 C.ar         1    LIG   0.0000
  16 Cl16        -1.9860     7.2492     5.9777 Cl           1    LIG   0.0000
  17 C17         -1.7225     5.2588     4.1077 C.ar         1    LIG   0.0000
  18 C18         -1.2035     4.0600     3.6277 C.ar         1    LIG   0.0000
  19 N19          2.5625     3.0205     3.4945 N.2          1    LIG   0.0000
  20 N20          3.4901     3.0421     2.5542 N.2          1    LIG   0.0000
  21 C21          3.0824     2.3287     1.5337 C.2          1    LIG   0.0000
  22 N22          3.7883     2.1005     0.3448 N.pl3        1    LIG   0.0000
  23 C23          5.1235     2.6871     0.1576 C.3          1    LIG   0.0000
  24 C24          5.0042     4.0680    -0.4568 C.3          1    LIG   0.0000
  25 C25          3.7719     4.0496    -1.3442 C.3          1    LIG   0.0000
  26 N26          3.9290     3.0613    -2.4211 N.am         1    LIG   0.0000
  27 C27          4.3673     3.4638    -3.7653 C.3          1    LIG   0.0000
  28 C28          5.8842     3.4050    -3.8424 C.3          1    LIG   0.0000
  29 C29          6.3374     3.8212    -5.2322 C.3          1    LIG   0.0000
  30 C30          3.6499     1.7221    -2.1193 C.2          1    LIG   0.0000
  31 O31          3.7595     0.8799    -2.9957 O.2          1    LIG   0.0000
  32 C32          3.2148     1.2755    -0.7299 C.3          1    LIG   0.0000
  33 C33         -1.2469     2.1836     0.3822 C.2          1    LIG   0.0000
  34 C34         -2.0898     1.7051     1.5525 C.3          1    LIG   0.0000
  35 N35         -1.6444     2.9619    -0.5952 N.2          1    LIG   0.0000
  36 H            2.1341     4.4428    -6.1307 H            1    LIG   0.0000
  37 H            2.4802     3.4478    -4.8830 H            1    LIG   0.0000
  38 H            1.4303     2.9720    -6.0397 H            1    LIG   0.0000
  39 H            0.9477     5.1310    -4.1842 H            1    LIG   0.0000
  40 H           -0.1023     4.6553    -5.3409 H            1    LIG   0.0000
  41 H           -0.5600     2.6921    -4.2761 H            1    LIG   0.0000
  42 H            0.8008     2.7695    -3.3767 H            1    LIG   0.0000
  43 H           -0.3273     4.8860    -2.4784 H            1    LIG   0.0000
  44 H           -1.6799     4.0910    -2.9312 H            1    LIG   0.0000
  45 H            1.3567     2.4880    -1.4642 H            1    LIG   0.0000
  46 H            0.4329     0.4125     1.5773 H            1    LIG   0.0000
  47 H            1.5773     0.4329     0.4125 H            1    LIG   0.0000
  48 H           -0.4038     1.5907     3.2717 H            1    LIG   0.0000
  49 H            0.4694     1.4194     4.6410 H            1    LIG   0.0000
  50 H            0.7404     3.2747     6.1969 H            1    LIG   0.0000
  51 H           -0.1444     5.3389     7.0349 H            1    LIG   0.0000
  52 H           -2.3729     5.7845     3.5595 H            1    LIG   0.0000
  53 H           -1.4805     3.7193     2.7292 H            1    LIG   0.0000
  54 H            5.6605     2.1006    -0.4487 H            1    LIG   0.0000
  55 H            5.5809     2.7579     1.0441 H            1    LIG   0.0000
  56 H            5.8173     4.2737    -1.0013 H            1    LIG   0.0000
  57 H            4.9009     4.7563     0.2612 H            1    LIG   0.0000
  58 H            2.9725     3.8114    -0.7926 H            1    LIG   0.0000
  59 H            3.6417     4.9562    -1.7456 H            1    LIG   0.0000
  60 H            4.0601     4.3973    -3.9505 H            1    LIG   0.0000
  61 H            3.9747     2.8429    -4.4438 H            1    LIG   0.0000
  62 H            6.1914     2.4715    -3.6572 H            1    LIG   0.0000
  63 H            6.2768     4.0259    -3.1639 H            1    LIG   0.0000
  64 H            7.3354     3.7825    -5.2829 H            1    LIG   0.0000
  65 H            5.9449     3.2003    -5.9107 H            1    LIG   0.0000
  66 H            6.0302     4.7546    -5.4174 H            1    LIG   0.0000
  67 H            2.2177     1.3294    -0.6755 H            1    LIG   0.0000
  68 H            3.5053     0.3283    -0.5941 H            1    LIG   0.0000
  69 H           -1.5347     1.1237     2.1474 H            1    LIG   0.0000
  70 H           -2.4192     2.4943     2.0708 H            1    LIG   0.0000
  71 H           -2.8702     1.1823     1.2094 H            1    LIG   0.0000
@<TRIPOS>BOND
   1        1        2 1
   2        2        3 1
   3        3        4 1
   4        4        5 1
   5        5        6 1
   6        6        7 2
   7        7        8 1
   8        8        9 1
   9        9       10 1
  10       10       11 1
  11       11       12 1
  12       12       13 ar
  13       13       14 ar
  14       14       15 ar
  15       15       16 1
  16       15       17 ar
  17       17       18 ar
  18       18       12 ar
  19       10       19 2
  20       19       20 1
  21       20       21 2
  22       21        9 1
  23       21       22 1
  24       22       23 1
  25       23       24 1
  26       24       25 1
  27       25       26 1
  28       26       27 1
  29       27       28 1
  30       28       29 1
  31       26       30 am
  32       30       31 2
  33       30       32 1
  34       32       22 1
  35        7       33 1
  36       33       34 1
  37       33       35 2
  38       35        5 1
  39        1       36 1
  40        1       37 1
  41        1       38 1
  42        2       39 1
  43        2       40 1
  44        3       41 1
  45        3       42 1
  46        4       43 1
  47        4       44 1
  48        6       45 1
  49        8       46 1
  50        8       47 1
  51       11       48 1
  52       11       49 1
  53       13       50 1
  54       14       51 1
  55       17       52 1
  56       18       53 1
  57       23       54 1
  58       23       55 1
  59       24       56 1
  60       24       57 1
  61       25       58 1
  62       25       59 1
  63       27       60 1
  64       27       61 1
  65       28       62 1
  66       28       63 1
  67       29       64 1
  68       29       65 1
  69       29       66 1
  70       32       67 1
  71       32       68 1
  72       34       69 1
  73       34       70 1
  74       34       71 1

@<TRIPOS>MOLECULE

  71   74
SMALL
USER_CHARGES
@<TRIPOS>ATOM
   1 C1          -2.8656     7.0604    -3.4261 C.3          1    LIG   0.0000
   2 C2          -2.0410     5.8130    -3.6992 C.3          1    LIG   0.0000
   3 C3          -1.5488     5.2329    -2.3832 C.3          1    LIG   0.0000
   4 C4          -0.7243     3.9855    -2.6563 C.3          1    LIG   0.0000
   5 N5          -0.6525     3.1675    -1.4343 N.pl3        1    LIG   0.0000
   6 C6           0.4627     2.5070    -1.0165 C.2          1    LIG   0.0000
   7 C7           0.1071     1.8773     0.1382 C.2          1    LIG   0.0000
   8 C8           1.0000     1.0000     1.0000 C.3          1    LIG   0.0000
   9 N9           1.8482     1.8482     1.8482 N.pl3        1    LIG   0.0000
  10 C10          1.5418     2.3018     3.0937 C.2          1    LIG   0.0000
  11 C11          0.2662     2.0264     3.8727 C.3          1    LIG   0.0000
  12 C12         -0.2997     3.3359     4.3974 C.ar         1    LIG   0.0000
  13 C13          0.0909     3.8010     5.6483 C.ar         1    LIG   0.0000
  14 C14         -0.4218     4.9985     6.1365 C.ar         1    LIG   0.0000
  15 C15         -1.3252     5.7165     5.3597 C.ar         1    LIG   0.0000
  16 Cl16        -1.9860     7.2492     5.9777 Cl           1    LIG   0.0000
  17 C17         -1.7225     5.2588     4.1077 C.ar         1    LIG   0.0000
  18 C18         -1.2035     4.0600     3.6277 C.ar         1    LIG   0.0000
  19 N19          2.5625     3.0205     3.4945 N.2          1    LIG   0.0000
  20 N20          3.4901     3.0421     2.5542 N.2          1    LIG   0.0000
  21 C21          3.0824     2.3287     1.5337 C.2          1    LIG   0.0000
  22 N22          3.7883     2.1005     0.3448 N.pl3        1    LIG   0.0000
  23 C23          5.1235     2.6871     0.1576 C.3          1    LIG   0.0000
  24 C24          5.0042     4.0680    -0.4568 C.3          1    LIG   0.0000
  25 C25          3.7719     4.0496    -1.3442 C.3          1    LIG   0.0000
  26 N26          3.9290     3.0613    -2.4211 N.am         1    LIG   0.0000
  27 C27          4.3673     3.4638    -3.7653 C.3          1    LIG   0.0000
  28 C28          5.8842     3.4050    -3.8424 C.3          1    LIG   0.0000
  29 C29          6.3374     3.8212    -5.2322 C.3          1    LIG   0.0000
  30 C30          3.6499     1.7221    -2.1193 C.2          1    LIG   0.0000
  31 O31          3.7595     0.8799    -2.9957 O.2          1    LIG   0.0000
  32 C32          3.2148     1.2755    -0.7299 C.3          1    LIG   0.0000
  33 C33         -1.2469     2.1836     0.3822 C.2          1    LIG   0.0000
  34 C34         -2.0898     1.7051     1.5525 C.3          1    LIG   0.0000
  35 N35         -1.6444     2.9619    -0.5952 N.2          1    LIG   0.0000
  36 H           -3.1894     7.4420    -4.2919 H            1    LIG   0.0000
  37 H           -3.6496     6.8228    -2.8526 H            1    LIG   0.0000
  38 H           -2.3003     7.7370    -2.9543 H            1    LIG   0.0000
  39 H           -2.6063     5.1364    -4.1710 H            1    LIG   0.0000
  40 H           -1.2570     6.0506    -4.2727 H            1    LIG   0.0000
  41 H           -0.9835     5.9095    -1.9114 H            1    LIG   0.0000
  42 H           -2.3328     4.9953    -1.8097 H            1    LIG   0.0000
  43 H           -1.1537     3.4555    -3.3875 H            1    LIG   0.0000
  44 H            0.1989     4.2506    -2.9347 H            1    LIG   0.0000
  45 H            1.3567     2.4880    -1.4642 H            1    LIG   0.0000
  46 H            0.4329     0.4125     1.5773 H            1    LIG   0.0000
  47 H            1.5773     0.4329     0.4125 H            1    LIG   0.0000
  48 H           -0.4038     1.5907     3.2717 H            1    LIG   0.0000
  49 H            0.4694     1.4194     4.6410 H            1    LIG   0.0000
  50 H            0.7404     3.2747     6.1969 H            1    LIG   0.0000
  51 H           -0.1444     5.3389     7.0349 H            1    LIG   0.0000
  52 H           -2.3729     5.7845     3.5595 H            1    LIG   0.0000
  53 H           -1.4805     3.7193     2.7292 H            1    LIG   0.0000
  54 H            5.6605     2.1006    -0.4487 H            1    LIG   0.0000
  55 H            5.5809     2.7579     1.0441 H            1    LIG   0.0000
  56 H            5.8173     4.2737    -1.0013 H            1    LIG   0.0000
  57 H            4.9009     4.7563     0.2612 H            1    LIG   0.0000
  58 H            2.9725     3.8114    -0.7926 H            1    LIG   0.0000
  59 H            3.6417     4.9562    -1.7456 H            1    LIG   0.0000
  60 H            4.0601     4.3973    -3.9505 H            1    LIG   0.0000
  61 H            3.9747     2.8429    -4.4438 H            1    LIG   0.0000
  62 H            6.1914     2.4715    -3.6572 H            1    LIG   0.0000
  63 H            6.2768     4.0259    -3.1639 H            1    LIG   0.0000
  64 H            7.3354     3.7825    -5.2829 H            1    LIG   0.0000
  65 H            5.9449     3.2003    -5.9107 H            1    LIG   0.0000
  66 H            6.0302     4.7546    -5.4174 H            1    LIG   0.0000
  67 H            2.2177     1.3294    -0.6755 H            1    LIG   0.0000
  68 H            3.5053     0.3283    -0.5941 H            1    LIG   0.0000
  69 H           -1.5347     1.1237     2.1474 H            1    LIG   0.0000
  70 H           -2.4192     2.4943     2.0708 H            1    LIG   0.0000
  71 H           -2.8702     1.1823     1.2094 H            1    LIG   0.0000
@<TRIPOS>BOND
   1        1        2 1
   2        2        3 1
   3        3        4 1
   4        4        5 1
   5        5        6 1
   6        6        7 2
   7        7        8 1
   8        8        9 1
   9        9       10 1
  10       10       11 1
  11       11       12 1
  12       12       13 ar
  13       13       14 ar
  14       14       15 ar
  15       15       16 1
  16       15       17 ar
  17       17       18 ar
  18       18       12 ar
  19       10       19 2
  20       19       20 1
  21       20       21 2
  22       21        9 1
  23       21       22 1
  24       22       23 1
  25       23       24 1
  26       24       25 1
  27       25       26 1
  28       26       27 1
  29       27       28 1
  30       28       29 1
  31       26       30 am
  32       30       31 2
  33       30       32 1
  34       32       22 1
  35        7       33 1
  36       33       34 1
  37       33       35 2
  38       35        5 1
  39        1       36 1
  40        1       37 1
  41        1       38 1
  42        2       39 1
  43        2       40 1
  44        3       41 1
  45        3       42 1
  46        4       43 1
  47        4       44 1
  48        6       45 1
  49        8       46 1
  50        8       47 1
  51       11       48 1
  52       11       49 1
  53       13       50 1
  54       14       51 1
  55       17       52 1
  56       18       53 1
  57       23       54 1
  58       23       55 1
  59       24       56 1
  60       24       57 1
  61       25       58 1
  62       25       59 1
  63       27       60 1
  64       27       61 1
  65       28       62 1
  66       28       63 1
  67       29       64 1
  68       29       65 1
  69       29       66 1
  70       32       67 1
  71       32       68 1
  72       34       69 1
  73       34       70 1
  74       34       71 1

@<TRIPOS>MOLECULE

  71   74
SMALL
USER_CHARGES
@<TRIPOS>ATOM
   1 C1          -3.8594     7.3319     0.3022 C.3          1    LIG   0.0000
   2 C2          -2.7277     6.8636    -0.5980 C.3          1    LIG   0.0000
   3 C3          -2.3552     5.4337    -0.2414 C.3          1    LIG   0.0000
   4 C4          -1.2234     4.9655    -1.1415 C.3          1    LIG   0.0000
   5 N5          -0.8626     3.5805    -0.7961 N.pl3        1    LIG   0.0000
   6 C6           0.0807     3.2394     0.1249 C.2          1    LIG   0.0000
   7 C7           0.1071     1.8773     0.1382 C.2          1    LIG   0.0000
   8 C8           1.0000     1.0000     1.0000 C.3          1    LIG   0.0000
   9 N9           1.8482     1.8482     1.8482 N.pl3        1    LIG   0.0000
  10 C10          1.5418     2.3018     3.0937 C.2          1    LIG   0.0000
  11 C11          0.2662     2.0264     3.8727 C.3          1    LIG   0.0000
  12 C12         -0.2997     3.3359     4.3974 C.ar         1    LIG   0.0000
  13 C13          0.0909     3.8010     5.6483 C.ar         1    LIG   0.0000
  14 C14         -0.4218     4.9985     6.1365 C.ar         1    LIG   0.0000
  15 C15         -1.3252     5.7165     5.3597 C.ar         1    LIG   0.0000
  16 Cl16        -1.9860     7.2492     5.9777 Cl           1    LIG   0.0000
  17 C17         -1.7225     5.2588     4.1077 C.ar         1    LIG   0.0000
  18 C18         -1.2035     4.0600     3.6277 C.ar         1    LIG   0.0000
  19 N19          2.5625     3.0205     3.4945 N.2          1    LIG   0.0000
  20 N20          3.4901     3.0421     2.5542 N.2          1    LIG   0.0000
  21 C21          3.0824     2.3287     1.5337 C.2          1    LIG   0.0000
  22 N22          3.7883     2.1005     0.3448 N.pl3        1    LIG   0.0000
  23 C23          5.1235     2.6871     0.1576 C.3          1    LIG   0.0000
  24 C24          5.0042     4.0680    -0.4568 C.3          1    LIG   0.0000
  25 C25          3.7719     4.0496    -1.3442 C.3          1    LIG   0.0000
  26 N26          3.9290     3.0613    -2.4211 N.am         1    LIG   0.0000
  27 C27          4.3673     3.4638    -3.7653 C.3          1    LIG   0.0000
  28 C28          5.8842     3.4050    -3.8424 C.3          1    LIG   0.0000
  29 C29          6.3374     3.8212    -5.2322 C.3          1    LIG   0.0000
  30 C30          3.6499     1.7221    -2.1193 C.2          1    LIG   0.0000
  31 O31          3.7595     0.8799    -2.9957 O.2          1    LIG   0.0000
  32 C32          3.2148     1.2755    -0.7299 C.3          1    LIG   0.0000
  33 C33         -0.8427     1.4309    -0.8028 C.2          1    LIG   0.0000
  34 C34         -1.1713    -0.0121    -1.1472 C.3          1    LIG   0.0000
  35 N35         -1.3914     2.4998    -1.3278 N.2          1    LIG   0.0000
  36 H           -4.1045     8.2726     0.0676 H            1    LIG   0.0000
  37 H           -4.6542     6.7386     0.1744 H            1    LIG   0.0000
  38 H           -3.5641     7.2925     1.2568 H            1    LIG   0.0000
  39 H           -3.0230     6.9029    -1.5526 H            1    LIG   0.0000
  40 H           -1.9329     7.4569    -0.4702 H            1    LIG   0.0000
  41 H           -2.0599     5.3944     0.7132 H            1    LIG   0.0000
  42 H           -3.1500     4.8405    -0.3692 H            1    LIG   0.0000
  43 H           -1.5187     5.0048    -2.0961 H            1    LIG   0.0000
  44 H           -0.4286     5.5587    -1.0138 H            1    LIG   0.0000
  45 H            0.6380     3.8597     0.6767 H            1    LIG   0.0000
  46 H            0.4329     0.4125     1.5773 H            1    LIG   0.0000
  47 H            1.5773     0.4329     0.4125 H            1    LIG   0.0000
  48 H           -0.4038     1.5907     3.2717 H            1    LIG   0.0000
  49 H            0.4694     1.4194     4.6410 H            1    LIG   0.0000
  50 H            0.7404     3.2747     6.1969 H            1    LIG   0.0000
  51 H           -0.1444     5.3389     7.0349 H            1    LIG   0.0000
  52 H           -2.3729     5.7845     3.5595 H            1    LIG   0.0000
  53 H           -1.4805     3.7193     2.7292 H            1    LIG   0.0000
  54 H            5.6605     2.1006    -0.4487 H            1    LIG   0.0000
  55 H            5.5809     2.7579     1.0441 H            1    LIG   0.0000
  56 H            5.8173     4.2737    -1.0013 H            1    LIG   0.0000
  57 H            4.9009     4.7563     0.2612 H            1    LIG   0.0000
  58 H            2.9725     3.8114    -0.7926 H            1    LIG   0.0000
  59 H            3.6417     4.9562    -1.7456 H            1    LIG   0.0000
  60 H            4.0601     4.3973    -3.9505 H            1    LIG   0.0000
  61 H            3.9747     2.8429    -4.4438 H            1    LIG   0.0000
  62 H            6.1914     2.4715    -3.6572 H            1    LIG   0.0000
  63 H            6.2768     4.0259    -3.1639 H            1    LIG   0.0000
  64 H            7.3354     3.7825    -5.2829 H            1    LIG   0.0000
  65 H            5.9449     3.2003    -5.9107 H            1    LIG   0.0000
  66 H            6.0302     4.7546    -5.4174 H            1    LIG   0.0000
  67 H            2.2177     1.3294    -0.6755 H            1    LIG   0.0000
  68 H            3.5053     0.3283    -0.5941 H            1    LIG   0.0000
  69 H           -0.6033    -0.6238    -0.5966 H            1    LIG   0.0000
  70 H           -2.1363    -0.1894    -0.9542 H            1    LIG   0.0000
  71 H           -0.9904    -0.1726    -2.1175 H            1    LIG   0.0000
@<TRIPOS>BOND
   1        1        2 1
   2        2        3 1
   3        3        4 1
   4        4        5 1
   5        5        6 1
   6        6        7 2
   7        7        8 1
   8        8        9 1
   9        9       10 1
  10       10       11 1
  11       11       12 1
  12       12       13 ar
  13       13       14 ar
  14       14       15 ar
  15       15       16 1
  16       15       17 ar
  17       17       18 ar
  18       18       12 ar
  19       10       19 2
  20       19       20 1
  21       20       21 2
  22       21        9 1
  23       21       22 1
  24       22       23 1
  25       23       24 1
  26       24       25 1
  27       25       26 1
  28       26       27 1
  29       27       28 1
  30       28       29 1
  31       26       30 am
  32       30       31 2
  33       30       32 1
  34       32       22 1
  35        7       33 1
  36       33       34 1
  37       33       35 2
  38       35        5 1
  39        1       36 1
  40        1       37 1
  41        1       38 1
  42        2       39 1
  43        2       40 1
  44        3       41 1
  45        3       42 1
  46        4       43 1
  47        4       44 1
  48        6       45 1
  49        8       46 1
  50        8       47 1
  51       11       48 1
  52       11       49 1
  53       13       50 1
  54       14       51 1
  55       17       52 1
  56       18       53 1
  57       23       54 1
  58       23       55 1
  59       24       56 1
  60       24       57 1
  61       25       58 1
  62       25       59 1
  63       27       60 1
  64       27       61 1
  65       28       62 1
  66       28       63 1
  67       29       64 1
  68       29       65 1
  69       29       66 1
  70       32       67 1
  71       32       68 1
  72       34       69 1
  73       34       70 1
  74       34       71 1

