@<TRIPOS>MOLECULE
*****
 71 74 0 0 0
SMALL
USER_CHARGES

@<TRIPOS>ATOM
      1 C1         -1.6381    3.0826   -6.2593 C.3     1  LIG1        0.0000
      2 C2         -1.2182    3.9563   -5.0886 C.3     1  LIG1        0.0000
      3 C3         -1.1441    3.1118   -3.8270 C.3     1  LIG1        0.0000
      4 C4         -0.7243    3.9855   -2.6563 C.3     1  LIG1        0.0000
      5 N5         -0.6525    3.1675   -1.4343 N.pl3   1  LIG1        0.0000
      6 C6          0.4627    2.5070   -1.0165 C.2     1  LIG1        0.0000
      7 C7          0.1071    1.8773    0.1382 C.2     1  LIG1        0.0000
      8 C8          1.0000    1.0000    1.0000 C.3     1  LIG1        0.0000
      9 N9          1.8482    1.8482    1.8482 N.pl3   1  LIG1        0.0000
     10 C10         1.5418    2.3018    3.0937 C.2     1  LIG1        0.0000
     11 C11         0.2662    2.0264    3.8727 C.3     1  LIG1        0.0000
     12 C12         0.4414    0.7644    4.7018 C.3     1  LIG1        0.0000
     13 C13         0.1016   -0.4687    4.1564 C.3     1  LIG1        0.0000
     14 C14         0.2586   -1.6288    4.9077 C.3     1  LIG1        0.0000
     15 C15         0.7560   -1.5357    6.2036 C.3     1  LIG1        0.0000
     16 Cl16        0.9592   -3.0155    7.1713 Cl      1  LIG1        0.0000
     17 C17         1.0977   -0.3066    6.7580 C.3     1  LIG1        0.0000
     18 C18         0.9376    0.8483    5.9980 C.3     1  LIG1        0.0000
     19 N19         2.5625    3.0205    3.4945 N.2     1  LIG1        0.0000
     20 N20         3.4901    3.0421    2.5542 N.2     1  LIG1        0.0000
     21 C21         3.0824    2.3287    1.5337 C.cat   1  LIG1        0.0000
     22 N22         3.7883    2.1005    0.3448 N.pl3   1  LIG1        0.0000
     23 C23         5.1235    2.6871    0.1576 C.3     1  LIG1        0.0000
     24 C24         5.0042    4.0680   -0.4568 C.3     1  LIG1        0.0000
     25 C25         3.7719    4.0496   -1.3442 C.3     1  LIG1        0.0000
     26 N26         3.9290    3.0613   -2.4211 N.am    1  LIG1        0.0000
     27 C27         4.3673    3.4638   -3.7653 C.3     1  LIG1        0.0000
     28 C28         5.8842    3.4050   -3.8424 C.3     1  LIG1        0.0000
     29 C29         6.3374    3.8212   -5.2322 C.3     1  LIG1        0.0000
     30 C30         3.6499    1.7221   -2.1193 C.2     1  LIG1        0.0000
     31 O31         3.7595    0.8799   -2.9957 O.2     1  LIG1        0.0000
     32 C32         3.2148    1.2755   -0.7299 C.3     1  LIG1        0.0000
     33 C33        -1.2469    2.1836    0.3822 C.2     1  LIG1        0.0000
     34 C34        -2.0898    1.7051    1.5525 C.3     1  LIG1        0.0000
     35 N35        -1.6444    2.9619   -0.5952 N.2     1  LIG1        0.0000
     36 H          -1.6868    3.6382   -7.0893 H       1  LIG1        0.0000
     37 H          -0.9680    2.3513   -6.3866 H       1  LIG1        0.0000
     38 H          -2.5356    2.6833   -6.0723 H       1  LIG1        0.0000
     39 H          -0.3206    4.3555   -5.2757 H       1  LIG1        0.0000
     40 H          -1.8883    4.6876   -4.9613 H       1  LIG1        0.0000
     41 H          -2.0417    2.7126   -3.6399 H       1  LIG1        0.0000
     42 H          -0.4740    2.3805   -3.9543 H       1  LIG1        0.0000
     43 H           0.1733    4.3848   -2.8433 H       1  LIG1        0.0000
     44 H          -1.3944    4.7168   -2.5290 H       1  LIG1        0.0000
     45 H           1.3567    2.4880   -1.4642 H       1  LIG1        0.0000
     46 H           0.4329    0.4125    1.5773 H       1  LIG1        0.0000
     47 H           1.5773    0.4329    0.4125 H       1  LIG1        0.0000
     48 H           0.0719    2.7984    4.4778 H       1  LIG1        0.0000
     49 H          -0.4939    1.9033    3.2348 H       1  LIG1        0.0000
     50 H          -0.2557   -0.5216    3.2239 H       1  LIG1        0.0000
     51 H           0.0169   -2.5188    4.5211 H       1  LIG1        0.0000
     52 H           1.4539   -0.2535    7.6909 H       1  LIG1        0.0000
     53 H           1.1794    1.7385    6.3842 H       1  LIG1        0.0000
     54 H           5.6605    2.1006   -0.4487 H       1  LIG1        0.0000
     55 H           5.5809    2.7579    1.0441 H       1  LIG1        0.0000
     56 H           5.8173    4.2737   -1.0013 H       1  LIG1        0.0000
     57 H           4.9009    4.7563    0.2612 H       1  LIG1        0.0000
     58 H           2.9725    3.8114   -0.7926 H       1  LIG1        0.0000
     59 H           3.6417    4.9562   -1.7456 H       1  LIG1        0.0000
     60 H           4.0601    4.3973   -3.9505 H       1  LIG1        0.0000
     61 H           3.9747    2.8429   -4.4438 H       1  LIG1        0.0000
     62 H           6.1914    2.4715   -3.6572 H       1  LIG1        0.0000
     63 H           6.2768    4.0259   -3.1639 H       1  LIG1        0.0000
     64 H           7.3354    3.7825   -5.2829 H       1  LIG1        0.0000
     65 H           5.9449    3.2003   -5.9107 H       1  LIG1        0.0000
     66 H           6.0302    4.7546   -5.4174 H       1  LIG1        0.0000
     67 H           2.2177    1.3294   -0.6755 H       1  LIG1        0.0000
     68 H           3.5053    0.3283   -0.5941 H       1  LIG1        0.0000
     69 H          -1.5347    1.1237    2.1474 H       1  LIG1        0.0000
     70 H          -2.4192    2.4943    2.0708 H       1  LIG1        0.0000
     71 H          -2.8702    1.1823    1.2094 H       1  LIG1        0.0000
@<TRIPOS>BOND
     1     1     2    1
     2     2     3    1
     3     3     4    1
     4     4     5    1
     5     5     6    1
     6     6     7    2
     7     7     8    1
     8     8     9    1
     9     9    10    1
    10    10    11    1
    11    11    12    1
    12    12    13   ar
    13    13    14   ar
    14    14    15   ar
    15    15    16    1
    16    15    17   ar
    17    17    18   ar
    18    18    12   ar
    19    10    19    2
    20    19    20    1
    21    20    21    2
    22    21     9    1
    23    21    22    1
    24    22    23    1
    25    23    24    1
    26    24    25    1
    27    25    26    1
    28    26    27    1
    29    27    28    1
    30    28    29    1
    31    26    30   am
    32    30    31    2
    33    30    32    1
    34    32    22    1
    35     7    33    1
    36    33    34    1
    37    33    35    2
    38    35     5    1
    39     1    36    1
    40     1    37    1
    41     1    38    1
    42     2    39    1
    43     2    40    1
    44     3    41    1
    45     3    42    1
    46     4    43    1
    47     4    44    1
    48     6    45    1
    49     8    46    1
    50     8    47    1
    51    11    48    1
    52    11    49    1
    53    13    50    1
    54    14    51    1
    55    17    52    1
    56    18    53    1
    57    23    54    1
    58    23    55    1
    59    24    56    1
    60    24    57    1
    61    25    58    1
    62    25    59    1
    63    27    60    1
    64    27    61    1
    65    28    62    1
    66    28    63    1
    67    29    64    1
    68    29    65    1
    69    29    66    1
    70    32    67    1
    71    32    68    1
    72    34    69    1
    73    34    70    1
    74    34    71    1
