@<TRIPOS>MOLECULE
*****
 71 74 0 0 0
SMALL
USER_CHARGES

@<TRIPOS>ATOM
      1 C1          0.1709    7.3653   -3.7739 C.3     1  LIG1        0.0000
      2 C2         -0.7125    6.8803   -2.6360 C.3     1  LIG1        0.0000
      3 C3         -0.3400    5.4504   -2.2794 C.3     1  LIG1        0.0000
      4 C4         -1.2234    4.9655   -1.1415 C.3     1  LIG1        0.0000
      5 N5         -0.8626    3.5805   -0.7961 N.pl3   1  LIG1        0.0000
      6 C6          0.0807    3.2394    0.1249 C.2     1  LIG1        0.0000
      7 C7          0.1071    1.8773    0.1382 C.2     1  LIG1        0.0000
      8 C8          1.0000    1.0000    1.0000 C.3     1  LIG1        0.0000
      9 N9          1.8482    1.8482    1.8482 N.pl3   1  LIG1        0.0000
     10 C10         1.5418    2.3018    3.0937 C.2     1  LIG1        0.0000
     11 C11         0.2662    2.0264    3.8727 C.3     1  LIG1        0.0000
     12 C12        -0.7594    3.1047    3.5630 C.3     1  LIG1        0.0000
     13 C13        -0.8041    4.2548    4.3432 C.3     1  LIG1        0.0000
     14 C14        -1.7393    5.2469    4.0671 C.3     1  LIG1        0.0000
     15 C15        -2.6225    5.0705    3.0070 C.3     1  LIG1        0.0000
     16 Cl16       -3.8223    6.3351    2.6478 Cl      1  LIG1        0.0000
     17 C17        -2.5860    3.9231    2.2216 C.3     1  LIG1        0.0000
     18 C18        -1.6463    2.9364    2.5054 C.3     1  LIG1        0.0000
     19 N19         2.5625    3.0205    3.4945 N.2     1  LIG1        0.0000
     20 N20         3.4901    3.0421    2.5542 N.2     1  LIG1        0.0000
     21 C21         3.0824    2.3287    1.5337 C.cat   1  LIG1        0.0000
     22 N22         3.7883    2.1005    0.3448 N.pl3   1  LIG1        0.0000
     23 C23         5.1235    2.6871    0.1576 C.3     1  LIG1        0.0000
     24 C24         5.0042    4.0680   -0.4568 C.3     1  LIG1        0.0000
     25 C25         3.7719    4.0496   -1.3442 C.3     1  LIG1        0.0000
     26 N26         3.9290    3.0613   -2.4211 N.am    1  LIG1        0.0000
     27 C27         4.3673    3.4638   -3.7653 C.3     1  LIG1        0.0000
     28 C28         5.8842    3.4050   -3.8424 C.3     1  LIG1        0.0000
     29 C29         6.3374    3.8212   -5.2322 C.3     1  LIG1        0.0000
     30 C30         3.6499    1.7221   -2.1193 C.2     1  LIG1        0.0000
     31 O31         3.7595    0.8799   -2.9957 O.2     1  LIG1        0.0000
     32 C32         3.2148    1.2755   -0.7299 C.3     1  LIG1        0.0000
     33 C33        -0.8427    1.4309   -0.8028 C.2     1  LIG1        0.0000
     34 C34        -1.1713   -0.0121   -1.1472 C.3     1  LIG1        0.0000
     35 N35        -1.3914    2.4998   -1.3278 N.2     1  LIG1        0.0000
     36 H          -0.0742    8.3060   -4.0085 H       1  LIG1        0.0000
     37 H           1.1291    7.3314   -3.4897 H       1  LIG1        0.0000
     38 H           0.0390    6.7775   -4.5721 H       1  LIG1        0.0000
     39 H          -0.5806    7.4681   -1.8378 H       1  LIG1        0.0000
     40 H          -1.6707    6.9142   -2.9202 H       1  LIG1        0.0000
     41 H          -0.4719    4.8627   -3.0776 H       1  LIG1        0.0000
     42 H           0.6182    5.4166   -1.9953 H       1  LIG1        0.0000
     43 H          -1.0915    5.5533   -0.3434 H       1  LIG1        0.0000
     44 H          -2.1816    4.9993   -1.4257 H       1  LIG1        0.0000
     45 H           0.6380    3.8597    0.6767 H       1  LIG1        0.0000
     46 H           0.4329    0.4125    1.5773 H       1  LIG1        0.0000
     47 H           1.5773    0.4329    0.4125 H       1  LIG1        0.0000
     48 H          -0.0990    1.1335    3.6093 H       1  LIG1        0.0000
     49 H           0.4669    2.0287    4.8524 H       1  LIG1        0.0000
     50 H          -0.1639    4.3687    5.1030 H       1  LIG1        0.0000
     51 H          -1.7761    6.0767    4.6239 H       1  LIG1        0.0000
     52 H          -3.2269    3.8085    1.4626 H       1  LIG1        0.0000
     53 H          -1.6089    2.1066    1.9487 H       1  LIG1        0.0000
     54 H           5.6605    2.1006   -0.4487 H       1  LIG1        0.0000
     55 H           5.5809    2.7579    1.0441 H       1  LIG1        0.0000
     56 H           5.8173    4.2737   -1.0013 H       1  LIG1        0.0000
     57 H           4.9009    4.7563    0.2612 H       1  LIG1        0.0000
     58 H           2.9725    3.8114   -0.7926 H       1  LIG1        0.0000
     59 H           3.6417    4.9562   -1.7456 H       1  LIG1        0.0000
     60 H           4.0601    4.3973   -3.9505 H       1  LIG1        0.0000
     61 H           3.9747    2.8429   -4.4438 H       1  LIG1        0.0000
     62 H           6.1914    2.4715   -3.6572 H       1  LIG1        0.0000
     63 H           6.2768    4.0259   -3.1639 H       1  LIG1        0.0000
     64 H           7.3354    3.7825   -5.2829 H       1  LIG1        0.0000
     65 H           5.9449    3.2003   -5.9107 H       1  LIG1        0.0000
     66 H           6.0302    4.7546   -5.4174 H       1  LIG1        0.0000
     67 H           2.2177    1.3294   -0.6755 H       1  LIG1        0.0000
     68 H           3.5053    0.3283   -0.5941 H       1  LIG1        0.0000
     69 H          -0.6033   -0.6238   -0.5966 H       1  LIG1        0.0000
     70 H          -2.1363   -0.1894   -0.9542 H       1  LIG1        0.0000
     71 H          -0.9904   -0.1726   -2.1175 H       1  LIG1        0.0000
@<TRIPOS>BOND
     1     1     2    1
     2     2     3    1
     3     3     4    1
     4     4     5    1
     5     5     6    1
     6     6     7    2
     7     7     8    1
     8     8     9    1
     9     9    10    1
    10    10    11    1
    11    11    12    1
    12    12    13   ar
    13    13    14   ar
    14    14    15   ar
    15    15    16    1
    16    15    17   ar
    17    17    18   ar
    18    18    12   ar
    19    10    19    2
    20    19    20    1
    21    20    21    2
    22    21     9    1
    23    21    22    1
    24    22    23    1
    25    23    24    1
    26    24    25    1
    27    25    26    1
    28    26    27    1
    29    27    28    1
    30    28    29    1
    31    26    30   am
    32    30    31    2
    33    30    32    1
    34    32    22    1
    35     7    33    1
    36    33    34    1
    37    33    35    2
    38    35     5    1
    39     1    36    1
    40     1    37    1
    41     1    38    1
    42     2    39    1
    43     2    40    1
    44     3    41    1
    45     3    42    1
    46     4    43    1
    47     4    44    1
    48     6    45    1
    49     8    46    1
    50     8    47    1
    51    11    48    1
    52    11    49    1
    53    13    50    1
    54    14    51    1
    55    17    52    1
    56    18    53    1
    57    23    54    1
    58    23    55    1
    59    24    56    1
    60    24    57    1
    61    25    58    1
    62    25    59    1
    63    27    60    1
    64    27    61    1
    65    28    62    1
    66    28    63    1
    67    29    64    1
    68    29    65    1
    69    29    66    1
    70    32    67    1
    71    32    68    1
    72    34    69    1
    73    34    70    1
    74    34    71    1
