@<TRIPOS>MOLECULE

  26   27
SMALL
USER_CHARGES
@<TRIPOS>ATOM
   1 C1           1.2601    -0.7381     1.4330 C.3          1    LIG   0.0000
   2 S2           1.0000     1.0000     1.0000 S.o2         1    LIG   0.0000
   3 O3           1.3445     1.2069    -0.3828 O.2          1    LIG   0.0000
   4 O4          -0.3828     1.3445     1.2069 O.2          1    LIG   0.0000
   5 C5           2.0045     2.0045     2.0045 C.2          1    LIG   0.0000
   6 C6           3.1397     2.7422     1.5967 C.2          1    LIG   0.0000
   7 C7           3.6234     3.3839     2.6995 C.2          1    LIG   0.0000
   8 N8           2.8358     3.0714     3.7699 N.pl3        1    LIG   0.0000
   9 C9           1.8538     2.2305     3.3398 C.2          1    LIG   0.0000
  10 C10          0.8115     1.6640     4.1740 C.ar         1    LIG   0.0000
  11 C11          1.1565     0.8626     5.2573 C.ar         1    LIG   0.0000
  12 C12          0.1504     0.3228     6.0517 C.ar         1    LIG   0.0000
  13 C13         -1.1844     0.5866     5.7595 C.ar         1    LIG   0.0000
  14 C14         -1.5202     1.3895     4.6743 C.ar         1    LIG   0.0000
  15 C15         -0.5200     1.9327     3.8743 C.ar         1    LIG   0.0000
  16 H            2.9583     3.4018     4.7058 H            1    LIG   0.0000
  17 H            1.0208    -0.8818     2.3933 H            1    LIG   0.0000
  18 H            0.6827    -1.3154     0.8557 H            1    LIG   0.0000
  19 H            2.2203    -0.9773     1.2893 H            1    LIG   0.0000
  20 H            3.5178     2.7856     0.6720 H            1    LIG   0.0000
  21 H            4.4229     3.9841     2.7202 H            1    LIG   0.0000
  22 H            2.1174     0.6765     5.4628 H            1    LIG   0.0000
  23 H            0.3862    -0.2550     6.8330 H            1    LIG   0.0000
  24 H           -1.9055     0.1972     6.3324 H            1    LIG   0.0000
  25 H           -2.4810     1.5762     4.4691 H            1    LIG   0.0000
  26 H           -0.7556     2.5100     3.0924 H            1    LIG   0.0000
@<TRIPOS>BOND
   1        1        2 1
   2        2        3 2
   3        2        4 2
   4        2        5 1
   5        5        6 1
   6        6        7 2
   7        7        8 1
   8        8        9 1
   9        9        5 2
  10        9       10 1
  11       10       11 ar
  12       11       12 ar
  13       12       13 ar
  14       13       14 ar
  15       14       15 ar
  16       15       10 ar
  17        8       16 1
  18        1       17 1
  19        1       18 1
  20        1       19 1
  21        6       20 1
  22        7       21 1
  23       11       22 1
  24       12       23 1
  25       13       24 1
  26       14       25 1
  27       15       26 1

@<TRIPOS>MOLECULE

  26   27
SMALL
USER_CHARGES
@<TRIPOS>ATOM
   1 C1           1.2601    -0.7381     1.4330 C.3          1    LIG   0.0000
   2 S2           1.0000     1.0000     1.0000 S.o2         1    LIG   0.0000
   3 O3           1.3445     1.2069    -0.3828 O.2          1    LIG   0.0000
   4 O4          -0.3828     1.3445     1.2069 O.2          1    LIG   0.0000
   5 C5           2.0045     2.0045     2.0045 C.2          1    LIG   0.0000
   6 C6           2.8745     3.0318     1.5723 C.2          1    LIG   0.0000
   7 C7           3.4648     3.5574     2.6845 C.2          1    LIG   0.0000
   8 N8           2.9973     2.8962     3.7836 N.pl3        1    LIG   0.0000
   9 C9           2.1103     1.9518     3.3620 C.2          1    LIG   0.0000
  10 C10          1.3919     1.0334     4.2243 C.ar         1    LIG   0.0000
  11 C11          2.0436     0.4546     5.3084 C.ar         1    LIG   0.0000
  12 C12          1.3471    -0.4256     6.1298 C.ar         1    LIG   0.0000
  13 C13          0.0131    -0.7188     5.8635 C.ar         1    LIG   0.0000
  14 C14         -0.6308    -0.1352     4.7772 C.ar         1    LIG   0.0000
  15 C15          0.0588     0.7458     3.9503 C.ar         1    LIG   0.0000
  16 H            3.2598     3.0740     4.7320 H            1    LIG   0.0000
  17 H            1.0208    -0.8818     2.3933 H            1    LIG   0.0000
  18 H            0.6827    -1.3154     0.8557 H            1    LIG   0.0000
  19 H            2.2203    -0.9773     1.2893 H            1    LIG   0.0000
  20 H            3.0285     3.3197     0.6271 H            1    LIG   0.0000
  21 H            4.1303     4.3038     2.6932 H            1    LIG   0.0000
  22 H            3.0023     0.6691     5.4952 H            1    LIG   0.0000
  23 H            1.8052    -0.8480     6.9119 H            1    LIG   0.0000
  24 H           -0.4850    -1.3521     6.4558 H            1    LIG   0.0000
  25 H           -1.5897    -0.3491     4.5907 H            1    LIG   0.0000
  26 H           -0.3989     1.1677     3.1676 H            1    LIG   0.0000
@<TRIPOS>BOND
   1        1        2 1
   2        2        3 2
   3        2        4 2
   4        2        5 1
   5        5        6 1
   6        6        7 2
   7        7        8 1
   8        8        9 1
   9        9        5 2
  10        9       10 1
  11       10       11 ar
  12       11       12 ar
  13       12       13 ar
  14       13       14 ar
  15       14       15 ar
  16       15       10 ar
  17        8       16 1
  18        1       17 1
  19        1       18 1
  20        1       19 1
  21        6       20 1
  22        7       21 1
  23       11       22 1
  24       12       23 1
  25       13       24 1
  26       14       25 1
  27       15       26 1

@<TRIPOS>MOLECULE

  26   27
SMALL
USER_CHARGES
@<TRIPOS>ATOM
   1 C1           1.2601    -0.7381     1.4330 C.3          1    LIG   0.0000
   2 S2           1.0000     1.0000     1.0000 S.o2         1    LIG   0.0000
   3 O3           1.3445     1.2069    -0.3828 O.2          1    LIG   0.0000
   4 O4          -0.3828     1.3445     1.2069 O.2          1    LIG   0.0000
   5 C5           2.0045     2.0045     2.0045 C.2          1    LIG   0.0000
   6 C6           3.3268     2.4225     1.7292 C.2          1    LIG   0.0000
   7 C7           3.7351     3.1925     2.7791 C.2          1    LIG   0.0000
   8 N8           2.7214     3.2651     3.6906 N.pl3        1    LIG   0.0000
   9 C9           1.6722     2.5386     3.2133 C.2          1    LIG   0.0000
  10 C10          0.4006     2.3613     3.8876 C.ar         1    LIG   0.0000
  11 C11         -0.1805     3.4350     4.5543 C.ar         1    LIG   0.0000
  12 C12         -1.3998     3.2558     5.1990 C.ar         1    LIG   0.0000
  13 C13         -2.0254     2.0130     5.1725 C.ar         1    LIG   0.0000
  14 C14         -1.4372     0.9449     4.5032 C.ar         1    LIG   0.0000
  15 C15         -0.2173     1.1154     3.8563 C.ar         1    LIG   0.0000
  16 H            2.7448     3.7641     4.5569 H            1    LIG   0.0000
  17 H            1.0208    -0.8818     2.3933 H            1    LIG   0.0000
  18 H            0.6827    -1.3154     0.8557 H            1    LIG   0.0000
  19 H            2.2203    -0.9773     1.2893 H            1    LIG   0.0000
  20 H            3.8632     2.1958     0.9162 H            1    LIG   0.0000
  21 H            4.6294     3.6313     2.8665 H            1    LIG   0.0000
  22 H            0.2734     4.3259     4.5698 H            1    LIG   0.0000
  23 H           -1.8271     4.0203     5.6817 H            1    LIG   0.0000
  24 H           -2.9021     1.8872     5.6370 H            1    LIG   0.0000
  25 H           -1.8913     0.0541     4.4870 H            1    LIG   0.0000
  26 H            0.2105     0.3509     3.3742 H            1    LIG   0.0000
@<TRIPOS>BOND
   1        1        2 1
   2        2        3 2
   3        2        4 2
   4        2        5 1
   5        5        6 1
   6        6        7 2
   7        7        8 1
   8        8        9 1
   9        9        5 2
  10        9       10 1
  11       10       11 ar
  12       11       12 ar
  13       12       13 ar
  14       13       14 ar
  15       14       15 ar
  16       15       10 ar
  17        8       16 1
  18        1       17 1
  19        1       18 1
  20        1       19 1
  21        6       20 1
  22        7       21 1
  23       11       22 1
  24       12       23 1
  25       13       24 1
  26       14       25 1
  27       15       26 1

@<TRIPOS>MOLECULE

  26   27
SMALL
USER_CHARGES
@<TRIPOS>ATOM
   1 C1           1.2601    -0.7381     1.4330 C.3          1    LIG   0.0000
   2 S2           1.0000     1.0000     1.0000 S.o2         1    LIG   0.0000
   3 O3           1.3445     1.2069    -0.3828 O.2          1    LIG   0.0000
   4 O4          -0.3828     1.3445     1.2069 O.2          1    LIG   0.0000
   5 C5           2.0045     2.0045     2.0045 C.2          1    LIG   0.0000
   6 C6           3.4152     1.9707     2.0926 C.2          1    LIG   0.0000
   7 C7           3.7875     2.9223     2.9969 C.2          1    LIG   0.0000
   8 N8           2.6662     3.5396     3.4714 N.pl3        1    LIG   0.0000
   9 C9           1.5850     2.9749     2.8642 C.2          1    LIG   0.0000
  10 C10          0.2033     3.3485     3.0978 C.ar         1    LIG   0.0000
  11 C11         -0.2107     4.6510     2.8389 C.ar         1    LIG   0.0000
  12 C12         -1.5375     5.0008     3.0664 C.ar         1    LIG   0.0000
  13 C13         -2.4349     4.0523     3.5476 C.ar         1    LIG   0.0000
  14 C14         -2.0123     2.7520     3.8034 C.ar         1    LIG   0.0000
  15 C15         -0.6867     2.3940     3.5792 C.ar         1    LIG   0.0000
  16 H            2.6424     4.2771     4.1463 H            1    LIG   0.0000
  17 H            1.0208    -0.8818     2.3933 H            1    LIG   0.0000
  18 H            0.6827    -1.3154     0.8557 H            1    LIG   0.0000
  19 H            2.2203    -0.9773     1.2893 H            1    LIG   0.0000
  20 H            4.0265     1.3624     1.5863 H            1    LIG   0.0000
  21 H            4.7269     3.1328     3.2675 H            1    LIG   0.0000
  22 H            0.4385     5.3285     2.4930 H            1    LIG   0.0000
  23 H           -1.8466     5.9342     2.8842 H            1    LIG   0.0000
  24 H           -3.3883     4.3068     3.7102 H            1    LIG   0.0000
  25 H           -2.6615     2.0742     4.1487 H            1    LIG   0.0000
  26 H           -0.3772     1.4608     3.7620 H            1    LIG   0.0000
@<TRIPOS>BOND
   1        1        2 1
   2        2        3 2
   3        2        4 2
   4        2        5 1
   5        5        6 1
   6        6        7 2
   7        7        8 1
   8        8        9 1
   9        9        5 2
  10        9       10 1
  11       10       11 ar
  12       11       12 ar
  13       12       13 ar
  14       13       14 ar
  15       14       15 ar
  16       15       10 ar
  17        8       16 1
  18        1       17 1
  19        1       18 1
  20        1       19 1
  21        6       20 1
  22        7       21 1
  23       11       22 1
  24       12       23 1
  25       13       24 1
  26       14       25 1
  27       15       26 1

@<TRIPOS>MOLECULE

  26   27
SMALL
USER_CHARGES
@<TRIPOS>ATOM
   1 C1           1.2601    -0.7381     1.4330 C.3          1    LIG   0.0000
   2 S2           1.0000     1.0000     1.0000 S.o2         1    LIG   0.0000
   3 O3           1.3445     1.2069    -0.3828 O.2          1    LIG   0.0000
   4 O4          -0.3828     1.3445     1.2069 O.2          1    LIG   0.0000
   5 C5           2.0045     2.0045     2.0045 C.2          1    LIG   0.0000
   6 C6           3.4152     1.9707     2.0926 C.2          1    LIG   0.0000
   7 C7           3.7875     2.9223     2.9969 C.2          1    LIG   0.0000
   8 N8           2.6662     3.5396     3.4714 N.pl3        1    LIG   0.0000
   9 C9           1.5850     2.9749     2.8642 C.2          1    LIG   0.0000
  10 C10          0.2033     3.3485     3.0978 C.ar         1    LIG   0.0000
  11 C11         -0.3339     3.2345     4.3758 C.ar         1    LIG   0.0000
  12 C12         -1.6601     3.5944     4.5906 C.ar         1    LIG   0.0000
  13 C13         -2.4345     4.0628     3.5335 C.ar         1    LIG   0.0000
  14 C14         -1.8890     4.1738     2.2587 C.ar         1    LIG   0.0000
  15 C15         -0.5634     3.8153     2.0351 C.ar         1    LIG   0.0000
  16 H            2.6424     4.2771     4.1463 H            1    LIG   0.0000
  17 H            1.0208    -0.8818     2.3933 H            1    LIG   0.0000
  18 H            0.6827    -1.3154     0.8557 H            1    LIG   0.0000
  19 H            2.2203    -0.9773     1.2893 H            1    LIG   0.0000
  20 H            4.0265     1.3624     1.5863 H            1    LIG   0.0000
  21 H            4.7269     3.1328     3.2675 H            1    LIG   0.0000
  22 H            0.2273     2.8976     5.1318 H            1    LIG   0.0000
  23 H           -2.0573     3.5165     5.5050 H            1    LIG   0.0000
  24 H           -3.3877     4.3208     3.6910 H            1    LIG   0.0000
  25 H           -2.4498     4.5114     1.5027 H            1    LIG   0.0000
  26 H           -0.1662     3.8924     1.1206 H            1    LIG   0.0000
@<TRIPOS>BOND
   1        1        2 1
   2        2        3 2
   3        2        4 2
   4        2        5 1
   5        5        6 1
   6        6        7 2
   7        7        8 1
   8        8        9 1
   9        9        5 2
  10        9       10 1
  11       10       11 ar
  12       11       12 ar
  13       12       13 ar
  14       13       14 ar
  15       14       15 ar
  16       15       10 ar
  17        8       16 1
  18        1       17 1
  19        1       18 1
  20        1       19 1
  21        6       20 1
  22        7       21 1
  23       11       22 1
  24       12       23 1
  25       13       24 1
  26       14       25 1
  27       15       26 1

@<TRIPOS>MOLECULE

  26   27
SMALL
USER_CHARGES
@<TRIPOS>ATOM
   1 C1           1.2601    -0.7381     1.4330 C.3          1    LIG   0.0000
   2 S2           1.0000     1.0000     1.0000 S.o2         1    LIG   0.0000
   3 O3           1.3445     1.2069    -0.3828 O.2          1    LIG   0.0000
   4 O4          -0.3828     1.3445     1.2069 O.2          1    LIG   0.0000
   5 C5           2.0045     2.0045     2.0045 C.2          1    LIG   0.0000
   6 C6           1.5723     2.8745     3.0318 C.2          1    LIG   0.0000
   7 C7           2.6845     3.4648     3.5574 C.2          1    LIG   0.0000
   8 N8           3.7836     2.9973     2.8962 N.pl3        1    LIG   0.0000
   9 C9           3.3620     2.1103     1.9518 C.2          1    LIG   0.0000
  10 C10          4.2243     1.3919     1.0334 C.ar         1    LIG   0.0000
  11 C11          5.2051     0.5413     1.5328 C.ar         1    LIG   0.0000
  12 C12          6.0282    -0.1432     0.6447 C.ar         1    LIG   0.0000
  13 C13          5.8657     0.0262    -0.7269 C.ar         1    LIG   0.0000
  14 C14          4.8820     0.8786    -1.2176 C.ar         1    LIG   0.0000
  15 C15          4.0550     1.5676    -0.3361 C.ar         1    LIG   0.0000
  16 H            4.7320     3.2598     3.0740 H            1    LIG   0.0000
  17 H            1.0208    -0.8818     2.3933 H            1    LIG   0.0000
  18 H            0.6827    -1.3154     0.8557 H            1    LIG   0.0000
  19 H            2.2203    -0.9773     1.2893 H            1    LIG   0.0000
  20 H            0.6271     3.0285     3.3197 H            1    LIG   0.0000
  21 H            2.6932     4.1303     4.3038 H            1    LIG   0.0000
  22 H            5.3173     0.4233     2.5195 H            1    LIG   0.0000
  23 H            6.7369    -0.7572     0.9921 H            1    LIG   0.0000
  24 H            6.4590    -0.4674    -1.3629 H            1    LIG   0.0000
  25 H            4.7693     0.9962    -2.2042 H            1    LIG   0.0000
  26 H            3.3466     2.1822    -0.6832 H            1    LIG   0.0000
@<TRIPOS>BOND
   1        1        2 1
   2        2        3 2
   3        2        4 2
   4        2        5 1
   5        5        6 1
   6        6        7 2
   7        7        8 1
   8        8        9 1
   9        9        5 2
  10        9       10 1
  11       10       11 ar
  12       11       12 ar
  13       12       13 ar
  14       13       14 ar
  15       14       15 ar
  16       15       10 ar
  17        8       16 1
  18        1       17 1
  19        1       18 1
  20        1       19 1
  21        6       20 1
  22        7       21 1
  23       11       22 1
  24       12       23 1
  25       13       24 1
  26       14       25 1
  27       15       26 1

@<TRIPOS>MOLECULE

  26   27
SMALL
USER_CHARGES
@<TRIPOS>ATOM
   1 C1           1.2601    -0.7381     1.4330 C.3          1    LIG   0.0000
   2 S2           1.0000     1.0000     1.0000 S.o2         1    LIG   0.0000
   3 O3           1.3445     1.2069    -0.3828 O.2          1    LIG   0.0000
   4 O4          -0.3828     1.3445     1.2069 O.2          1    LIG   0.0000
   5 C5           2.0045     2.0045     2.0045 C.2          1    LIG   0.0000
   6 C6           1.6588     2.5632     3.2565 C.2          1    LIG   0.0000
   7 C7           2.7361     3.2787     3.6920 C.2          1    LIG   0.0000
   8 N8           3.7300     3.1863     2.7608 N.pl3        1    LIG   0.0000
   9 C9           3.2772     2.4108     1.7362 C.2          1    LIG   0.0000
  10 C10          4.0324     2.0717     0.5454 C.ar         1    LIG   0.0000
  11 C11          4.8314     3.0358    -0.0605 C.ar         1    LIG   0.0000
  12 C12          5.5518     2.7021    -1.2026 C.ar         1    LIG   0.0000
  13 C13          5.4690     1.4158    -1.7270 C.ar         1    LIG   0.0000
  14 C14          4.6676     0.4579    -1.1144 C.ar         1    LIG   0.0000
  15 C15          3.9433     0.7836     0.0280 C.ar         1    LIG   0.0000
  16 H            4.6324     3.6131     2.8203 H            1    LIG   0.0000
  17 H            1.0208    -0.8818     2.3933 H            1    LIG   0.0000
  18 H            0.6827    -1.3154     0.8557 H            1    LIG   0.0000
  19 H            2.2203    -0.9773     1.2893 H            1    LIG   0.0000
  20 H            0.7870     2.4543     3.7340 H            1    LIG   0.0000
  21 H            2.7887     3.7868     4.5517 H            1    LIG   0.0000
  22 H            4.8874     3.9585     0.3208 H            1    LIG   0.0000
  23 H            6.1294     3.3868    -1.6471 H            1    LIG   0.0000
  24 H            5.9881     1.1788    -2.5482 H            1    LIG   0.0000
  25 H            4.6121    -0.4651    -1.4951 H            1    LIG   0.0000
  26 H            3.3651     0.0992     0.4722 H            1    LIG   0.0000
@<TRIPOS>BOND
   1        1        2 1
   2        2        3 2
   3        2        4 2
   4        2        5 1
   5        5        6 1
   6        6        7 2
   7        7        8 1
   8        8        9 1
   9        9        5 2
  10        9       10 1
  11       10       11 ar
  12       11       12 ar
  13       12       13 ar
  14       13       14 ar
  15       14       15 ar
  16       15       10 ar
  17        8       16 1
  18        1       17 1
  19        1       18 1
  20        1       19 1
  21        6       20 1
  22        7       21 1
  23       11       22 1
  24       12       23 1
  25       13       24 1
  26       14       25 1
  27       15       26 1

@<TRIPOS>MOLECULE

  26   27
SMALL
USER_CHARGES
@<TRIPOS>ATOM
   1 C1           1.2601    -0.7381     1.4330 C.3          1    LIG   0.0000
   2 S2           1.0000     1.0000     1.0000 S.o2         1    LIG   0.0000
   3 O3           1.3445     1.2069    -0.3828 O.2          1    LIG   0.0000
   4 O4          -0.3828     1.3445     1.2069 O.2          1    LIG   0.0000
   5 C5           2.0045     2.0045     2.0045 C.2          1    LIG   0.0000
   6 C6           1.5967     3.1397     2.7422 C.2          1    LIG   0.0000
   7 C7           2.6995     3.6234     3.3839 C.2          1    LIG   0.0000
   8 N8           3.7699     2.8358     3.0714 N.pl3        1    LIG   0.0000
   9 C9           3.3398     1.8538     2.2305 C.2          1    LIG   0.0000
  10 C10          4.1740     0.8115     1.6640 C.ar         1    LIG   0.0000
  11 C11          5.1505     0.2084     2.4499 C.ar         1    LIG   0.0000
  12 C12          5.9466    -0.7899     1.8982 C.ar         1    LIG   0.0000
  13 C13          5.7618    -1.1756     0.5740 C.ar         1    LIG   0.0000
  14 C14          4.7826    -0.5672    -0.2045 C.ar         1    LIG   0.0000
  15 C15          3.9825     0.4326     0.3393 C.ar         1    LIG   0.0000
  16 H            4.7058     2.9583     3.4018 H            1    LIG   0.0000
  17 H            1.0208    -0.8818     2.3933 H            1    LIG   0.0000
  18 H            0.6827    -1.3154     0.8557 H            1    LIG   0.0000
  19 H            2.2203    -0.9773     1.2893 H            1    LIG   0.0000
  20 H            0.6720     3.5178     2.7856 H            1    LIG   0.0000
  21 H            2.7202     4.4229     3.9841 H            1    LIG   0.0000
  22 H            5.2788     0.4894     3.4010 H            1    LIG   0.0000
  23 H            6.6520    -1.2306     2.4534 H            1    LIG   0.0000
  24 H            6.3356    -1.8937     0.1802 H            1    LIG   0.0000
  25 H            4.6538    -0.8486    -1.1554 H            1    LIG   0.0000
  26 H            3.2775     0.8740    -0.2159 H            1    LIG   0.0000
@<TRIPOS>BOND
   1        1        2 1
   2        2        3 2
   3        2        4 2
   4        2        5 1
   5        5        6 1
   6        6        7 2
   7        7        8 1
   8        8        9 1
   9        9        5 2
  10        9       10 1
  11       10       11 ar
  12       11       12 ar
  13       12       13 ar
  14       13       14 ar
  15       14       15 ar
  16       15       10 ar
  17        8       16 1
  18        1       17 1
  19        1       18 1
  20        1       19 1
  21        6       20 1
  22        7       21 1
  23       11       22 1
  24       12       23 1
  25       13       24 1
  26       14       25 1
  27       15       26 1

@<TRIPOS>MOLECULE

  26   27
SMALL
USER_CHARGES
@<TRIPOS>ATOM
   1 C1           1.2601    -0.7381     1.4330 C.3          1    LIG   0.0000
   2 S2           1.0000     1.0000     1.0000 S.o2         1    LIG   0.0000
   3 O3           1.3445     1.2069    -0.3828 O.2          1    LIG   0.0000
   4 O4          -0.3828     1.3445     1.2069 O.2          1    LIG   0.0000
   5 C5           2.0045     2.0045     2.0045 C.2          1    LIG   0.0000
   6 C6           1.9707     2.0926     3.4152 C.2          1    LIG   0.0000
   7 C7           2.9223     2.9969     3.7875 C.2          1    LIG   0.0000
   8 N8           3.5396     3.4714     2.6662 N.pl3        1    LIG   0.0000
   9 C9           2.9749     2.8642     1.5850 C.2          1    LIG   0.0000
  10 C10          3.3485     3.0978     0.2033 C.ar         1    LIG   0.0000
  11 C11          4.6510     2.8389    -0.2107 C.ar         1    LIG   0.0000
  12 C12          5.0008     3.0664    -1.5375 C.ar         1    LIG   0.0000
  13 C13          4.0523     3.5476    -2.4349 C.ar         1    LIG   0.0000
  14 C14          2.7520     3.8034    -2.0123 C.ar         1    LIG   0.0000
  15 C15          2.3940     3.5792    -0.6867 C.ar         1    LIG   0.0000
  16 H            4.2771     4.1463     2.6424 H            1    LIG   0.0000
  17 H            1.0208    -0.8818     2.3933 H            1    LIG   0.0000
  18 H            0.6827    -1.3154     0.8557 H            1    LIG   0.0000
  19 H            2.2203    -0.9773     1.2893 H            1    LIG   0.0000
  20 H            1.3624     1.5863     4.0265 H            1    LIG   0.0000
  21 H            3.1328     3.2675     4.7269 H            1    LIG   0.0000
  22 H            5.3285     2.4930     0.4385 H            1    LIG   0.0000
  23 H            5.9342     2.8842    -1.8466 H            1    LIG   0.0000
  24 H            4.3068     3.7102    -3.3883 H            1    LIG   0.0000
  25 H            2.0742     4.1487    -2.6615 H            1    LIG   0.0000
  26 H            1.4608     3.7620    -0.3772 H            1    LIG   0.0000
@<TRIPOS>BOND
   1        1        2 1
   2        2        3 2
   3        2        4 2
   4        2        5 1
   5        5        6 1
   6        6        7 2
   7        7        8 1
   8        8        9 1
   9        9        5 2
  10        9       10 1
  11       10       11 ar
  12       11       12 ar
  13       12       13 ar
  14       13       14 ar
  15       14       15 ar
  16       15       10 ar
  17        8       16 1
  18        1       17 1
  19        1       18 1
  20        1       19 1
  21        6       20 1
  22        7       21 1
  23       11       22 1
  24       12       23 1
  25       13       24 1
  26       14       25 1
  27       15       26 1

@<TRIPOS>MOLECULE

  26   27
SMALL
USER_CHARGES
@<TRIPOS>ATOM
   1 C1           1.2601    -0.7381     1.4330 C.3          1    LIG   0.0000
   2 S2           1.0000     1.0000     1.0000 S.o2         1    LIG   0.0000
   3 O3           1.3445     1.2069    -0.3828 O.2          1    LIG   0.0000
   4 O4          -0.3828     1.3445     1.2069 O.2          1    LIG   0.0000
   5 C5           2.0045     2.0045     2.0045 C.2          1    LIG   0.0000
   6 C6           1.9707     2.0926     3.4152 C.2          1    LIG   0.0000
   7 C7           2.9223     2.9969     3.7875 C.2          1    LIG   0.0000
   8 N8           3.5396     3.4714     2.6662 N.pl3        1    LIG   0.0000
   9 C9           2.9749     2.8642     1.5850 C.2          1    LIG   0.0000
  10 C10          3.3485     3.0978     0.2033 C.ar         1    LIG   0.0000
  11 C11          3.2345     4.3758    -0.3339 C.ar         1    LIG   0.0000
  12 C12          3.5944     4.5906    -1.6601 C.ar         1    LIG   0.0000
  13 C13          4.0628     3.5335    -2.4345 C.ar         1    LIG   0.0000
  14 C14          4.1738     2.2587    -1.8890 C.ar         1    LIG   0.0000
  15 C15          3.8153     2.0351    -0.5634 C.ar         1    LIG   0.0000
  16 H            4.2771     4.1463     2.6424 H            1    LIG   0.0000
  17 H            1.0208    -0.8818     2.3933 H            1    LIG   0.0000
  18 H            0.6827    -1.3154     0.8557 H            1    LIG   0.0000
  19 H            2.2203    -0.9773     1.2893 H            1    LIG   0.0000
  20 H            1.3624     1.5863     4.0265 H            1    LIG   0.0000
  21 H            3.1328     3.2675     4.7269 H            1    LIG   0.0000
  22 H            2.8976     5.1318     0.2273 H            1    LIG   0.0000
  23 H            3.5165     5.5050    -2.0573 H            1    LIG   0.0000
  24 H            4.3208     3.6910    -3.3877 H            1    LIG   0.0000
  25 H            4.5114     1.5027    -2.4498 H            1    LIG   0.0000
  26 H            3.8924     1.1206    -0.1662 H            1    LIG   0.0000
@<TRIPOS>BOND
   1        1        2 1
   2        2        3 2
   3        2        4 2
   4        2        5 1
   5        5        6 1
   6        6        7 2
   7        7        8 1
   8        8        9 1
   9        9        5 2
  10        9       10 1
  11       10       11 ar
  12       11       12 ar
  13       12       13 ar
  14       13       14 ar
  15       14       15 ar
  16       15       10 ar
  17        8       16 1
  18        1       17 1
  19        1       18 1
  20        1       19 1
  21        6       20 1
  22        7       21 1
  23       11       22 1
  24       12       23 1
  25       13       24 1
  26       14       25 1
  27       15       26 1

@<TRIPOS>MOLECULE

  26   27
SMALL
USER_CHARGES
@<TRIPOS>ATOM
   1 C1           1.2601    -0.7381     1.4330 C.3          1    LIG   0.0000
   2 S2           1.0000     1.0000     1.0000 S.o2         1    LIG   0.0000
   3 O3           1.3445     1.2069    -0.3828 O.2          1    LIG   0.0000
   4 O4          -0.3828     1.3445     1.2069 O.2          1    LIG   0.0000
   5 C5           2.0045     2.0045     2.0045 C.2          1    LIG   0.0000
   6 C6           2.8931     1.5705     3.0150 C.2          1    LIG   0.0000
   7 C7           3.4742     2.6836     3.5489 C.2          1    LIG   0.0000
   8 N8           2.9801     3.7853     2.9118 N.pl3        1    LIG   0.0000
   9 C9           2.0852     3.3644     1.9745 C.2          1    LIG   0.0000
  10 C10          1.3353     4.2298     1.0845 C.ar         1    LIG   0.0000
  11 C11          2.0140     5.0635     0.2018 C.ar         1    LIG   0.0000
  12 C12          1.2867     5.8907    -0.6476 C.ar         1    LIG   0.0000
  13 C13         -0.1043     5.8783    -0.6090 C.ar         1    LIG   0.0000
  14 C14         -0.7747     5.0410     0.2767 C.ar         1    LIG   0.0000
  15 C15         -0.0549     4.2110     1.1303 C.ar         1    LIG   0.0000
  16 H            3.2309     4.7348     3.1001 H            1    LIG   0.0000
  17 H            1.0208    -0.8818     2.3933 H            1    LIG   0.0000
  18 H            0.6827    -1.3154     0.8557 H            1    LIG   0.0000
  19 H            2.2203    -0.9773     1.2893 H            1    LIG   0.0000
  20 H            3.0639     0.6237     3.2877 H            1    LIG   0.0000
  21 H            4.1506     2.6912     4.2853 H            1    LIG   0.0000
  22 H            3.0137     5.0682     0.1782 H            1    LIG   0.0000
  23 H            1.7636     6.4945    -1.2863 H            1    LIG   0.0000
  24 H           -0.6244     6.4741    -1.2210 H            1    LIG   0.0000
  25 H           -1.7744     5.0358     0.3000 H            1    LIG   0.0000
  26 H           -0.5316     3.6076     1.7696 H            1    LIG   0.0000
@<TRIPOS>BOND
   1        1        2 1
   2        2        3 2
   3        2        4 2
   4        2        5 1
   5        5        6 1
   6        6        7 2
   7        7        8 1
   8        8        9 1
   9        9        5 2
  10        9       10 1
  11       10       11 ar
  12       11       12 ar
  13       12       13 ar
  14       13       14 ar
  15       14       15 ar
  16       15       10 ar
  17        8       16 1
  18        1       17 1
  19        1       18 1
  20        1       19 1
  21        6       20 1
  22        7       21 1
  23       11       22 1
  24       12       23 1
  25       13       24 1
  26       14       25 1
  27       15       26 1

@<TRIPOS>MOLECULE

  26   27
SMALL
USER_CHARGES
@<TRIPOS>ATOM
   1 C1           1.2601    -0.7381     1.4330 C.3          1    LIG   0.0000
   2 S2           1.0000     1.0000     1.0000 S.o2         1    LIG   0.0000
   3 O3           1.3445     1.2069    -0.3828 O.2          1    LIG   0.0000
   4 O4          -0.3828     1.3445     1.2069 O.2          1    LIG   0.0000
   5 C5           2.0045     2.0045     2.0045 C.2          1    LIG   0.0000
   6 C6           2.8931     1.5705     3.0150 C.2          1    LIG   0.0000
   7 C7           3.4742     2.6836     3.5489 C.2          1    LIG   0.0000
   8 N8           2.9801     3.7853     2.9118 N.pl3        1    LIG   0.0000
   9 C9           2.0852     3.3644     1.9745 C.2          1    LIG   0.0000
  10 C10          1.3353     4.2298     1.0845 C.ar         1    LIG   0.0000
  11 C11          0.4752     5.1848     1.6164 C.ar         1    LIG   0.0000
  12 C12         -0.2407     6.0100     0.7555 C.ar         1    LIG   0.0000
  13 C13         -0.0923     5.8757    -0.6216 C.ar         1    LIG   0.0000
  14 C14          0.7703     4.9180    -1.1448 C.ar         1    LIG   0.0000
  15 C15          1.4896     4.0881    -0.2907 C.ar         1    LIG   0.0000
  16 H            3.2309     4.7348     3.1001 H            1    LIG   0.0000
  17 H            1.0208    -0.8818     2.3933 H            1    LIG   0.0000
  18 H            0.6827    -1.3154     0.8557 H            1    LIG   0.0000
  19 H            2.2203    -0.9773     1.2893 H            1    LIG   0.0000
  20 H            3.0639     0.6237     3.2877 H            1    LIG   0.0000
  21 H            4.1506     2.6912     4.2853 H            1    LIG   0.0000
  22 H            0.3726     5.2772     2.6069 H            1    LIG   0.0000
  23 H           -0.8622     6.7001     1.1263 H            1    LIG   0.0000
  24 H           -0.6083     6.4704    -1.2381 H            1    LIG   0.0000
  25 H            0.8735     4.8260    -2.1352 H            1    LIG   0.0000
  26 H            2.1106     3.3974    -0.6612 H            1    LIG   0.0000
@<TRIPOS>BOND
   1        1        2 1
   2        2        3 2
   3        2        4 2
   4        2        5 1
   5        5        6 1
   6        6        7 2
   7        7        8 1
   8        8        9 1
   9        9        5 2
  10        9       10 1
  11       10       11 ar
  12       11       12 ar
  13       12       13 ar
  14       13       14 ar
  15       14       15 ar
  16       15       10 ar
  17        8       16 1
  18        1       17 1
  19        1       18 1
  20        1       19 1
  21        6       20 1
  22        7       21 1
  23       11       22 1
  24       12       23 1
  25       13       24 1
  26       14       25 1
  27       15       26 1

@<TRIPOS>MOLECULE

  26   27
SMALL
USER_CHARGES
@<TRIPOS>ATOM
   1 C1           1.2601    -0.7381     1.4330 C.3          1    LIG   0.0000
   2 S2           1.0000     1.0000     1.0000 S.o2         1    LIG   0.0000
   3 O3           1.3445     1.2069    -0.3828 O.2          1    LIG   0.0000
   4 O4          -0.3828     1.3445     1.2069 O.2          1    LIG   0.0000
   5 C5           2.0045     2.0045     2.0045 C.2          1    LIG   0.0000
   6 C6           3.1542     1.6020     2.7223 C.2          1    LIG   0.0000
   7 C7           3.6307     2.7022     3.3738 C.2          1    LIG   0.0000
   8 N8           2.8224     3.7650     3.0897 N.pl3        1    LIG   0.0000
   9 C9           1.8342     3.3326     2.2573 C.2          1    LIG   0.0000
  10 C10          0.7674     4.1579     1.7243 C.ar         1    LIG   0.0000
  11 C11          0.1600     5.1080     2.5387 C.ar         1    LIG   0.0000
  12 C12         -0.8629     5.8946     2.0196 C.ar         1    LIG   0.0000
  13 C13         -1.2683     5.7271     0.6989 C.ar         1    LIG   0.0000
  14 C14         -0.6551     4.7747    -0.1084 C.ar         1    LIG   0.0000
  15 C15          0.3684     3.9832     0.4032 C.ar         1    LIG   0.0000
  16 H            2.9357     4.6976     3.4326 H            1    LIG   0.0000
  17 H            1.0208    -0.8818     2.3933 H            1    LIG   0.0000
  18 H            0.6827    -1.3154     0.8557 H            1    LIG   0.0000
  19 H            2.2203    -0.9773     1.2893 H            1    LIG   0.0000
  20 H            3.5454     0.6821     2.7478 H            1    LIG   0.0000
  21 H            4.4388     2.7260     3.9624 H            1    LIG   0.0000
  22 H            0.4555     5.2242     3.4870 H            1    LIG   0.0000
  23 H           -1.3072     6.5808     2.5956 H            1    LIG   0.0000
  24 H           -2.0040     6.2942     0.3285 H            1    LIG   0.0000
  25 H           -0.9500     4.6588    -1.0569 H            1    LIG   0.0000
  26 H            0.8123     3.2965    -0.1724 H            1    LIG   0.0000
@<TRIPOS>BOND
   1        1        2 1
   2        2        3 2
   3        2        4 2
   4        2        5 1
   5        5        6 1
   6        6        7 2
   7        7        8 1
   8        8        9 1
   9        9        5 2
  10        9       10 1
  11       10       11 ar
  12       11       12 ar
  13       12       13 ar
  14       13       14 ar
  15       14       15 ar
  16       15       10 ar
  17        8       16 1
  18        1       17 1
  19        1       18 1
  20        1       19 1
  21        6       20 1
  22        7       21 1
  23       11       22 1
  24       12       23 1
  25       13       24 1
  26       14       25 1
  27       15       26 1

@<TRIPOS>MOLECULE

  26   27
SMALL
USER_CHARGES
@<TRIPOS>ATOM
   1 C1           1.2601    -0.7381     1.4330 C.3          1    LIG   0.0000
   2 S2           1.0000     1.0000     1.0000 S.o2         1    LIG   0.0000
   3 O3           1.3445     1.2069    -0.3828 O.2          1    LIG   0.0000
   4 O4          -0.3828     1.3445     1.2069 O.2          1    LIG   0.0000
   5 C5           2.0045     2.0045     2.0045 C.2          1    LIG   0.0000
   6 C6           2.5837     1.6502     3.2447 C.2          1    LIG   0.0000
   7 C7           3.2890     2.7317     3.6861 C.2          1    LIG   0.0000
   8 N8           3.1674     3.7380     2.7717 N.pl3        1    LIG   0.0000
   9 C9           2.3832     3.2889     1.7521 C.2          1    LIG   0.0000
  10 C10          2.0095     4.0588     0.5812 C.ar         1    LIG   0.0000
  11 C11          2.9477     4.8871    -0.0260 C.ar         1    LIG   0.0000
  12 C12          2.5805     5.6225    -1.1480 C.ar         1    LIG   0.0000
  13 C13          1.2869     5.5250    -1.6518 C.ar         1    LIG   0.0000
  14 C14          0.3553     4.6939    -1.0383 C.ar         1    LIG   0.0000
  15 C15          0.7141     3.9554     0.0849 C.ar         1    LIG   0.0000
  16 H            3.5813     4.6459     2.8386 H            1    LIG   0.0000
  17 H            1.0208    -0.8818     2.3933 H            1    LIG   0.0000
  18 H            0.6827    -1.3154     0.8557 H            1    LIG   0.0000
  19 H            2.2203    -0.9773     1.2893 H            1    LIG   0.0000
  20 H            2.4933     0.7705     3.7116 H            1    LIG   0.0000
  21 H            3.8092     2.7792     4.5388 H            1    LIG   0.0000
  22 H            3.8759     4.9531     0.3401 H            1    LIG   0.0000
  23 H            3.2463     6.2215    -1.5929 H            1    LIG   0.0000
  24 H            1.0259     6.0549    -2.4586 H            1    LIG   0.0000
  25 H           -0.5728     4.6272    -1.4047 H            1    LIG   0.0000
  26 H            0.0483     3.3569     0.5304 H            1    LIG   0.0000
@<TRIPOS>BOND
   1        1        2 1
   2        2        3 2
   3        2        4 2
   4        2        5 1
   5        5        6 1
   6        6        7 2
   7        7        8 1
   8        8        9 1
   9        9        5 2
  10        9       10 1
  11       10       11 ar
  12       11       12 ar
  13       12       13 ar
  14       13       14 ar
  15       14       15 ar
  16       15       10 ar
  17        8       16 1
  18        1       17 1
  19        1       18 1
  20        1       19 1
  21        6       20 1
  22        7       21 1
  23       11       22 1
  24       12       23 1
  25       13       24 1
  26       14       25 1
  27       15       26 1

