@<TRIPOS>MOLECULE
*****
 26 27 0 0 0
SMALL
USER_CHARGES

@<TRIPOS>ATOM
      1 C1          1.2601   -0.7381    1.4330 C.3     1  LIG1        0.0000
      2 S2          1.0000    1.0000    1.0000 S.O2    1  LIG1        0.0000
      3 O3          1.3445    1.2069   -0.3828 O.2     1  LIG1        0.0000
      4 O4         -0.3828    1.3445    1.2069 O.2     1  LIG1        0.0000
      5 C5          2.0045    2.0045    2.0045 C.2     1  LIG1        0.0000
      6 C6          3.1397    2.7422    1.5967 C.2     1  LIG1        0.0000
      7 C7          3.6234    3.3839    2.6995 C.2     1  LIG1        0.0000
      8 N8          2.8358    3.0714    3.7699 N.pl3   1  LIG1        0.0000
      9 C9          1.8538    2.2305    3.3398 C.2     1  LIG1        0.0000
     10 C10         0.8115    1.6640    4.1740 C.3     1  LIG1        0.0000
     11 C11         1.1565    0.8626    5.2573 C.3     1  LIG1        0.0000
     12 C12         0.1504    0.3228    6.0517 C.3     1  LIG1        0.0000
     13 C13        -1.1844    0.5866    5.7595 C.3     1  LIG1        0.0000
     14 C14        -1.5202    1.3895    4.6743 C.3     1  LIG1        0.0000
     15 C15        -0.5200    1.9327    3.8743 C.3     1  LIG1        0.0000
     16 H           2.9583    3.4018    4.7058 H       1  LIG1        0.0000
     17 H           1.0208   -0.8818    2.3933 H       1  LIG1        0.0000
     18 H           0.6827   -1.3154    0.8557 H       1  LIG1        0.0000
     19 H           2.2203   -0.9773    1.2893 H       1  LIG1        0.0000
     20 H           3.5178    2.7856    0.6720 H       1  LIG1        0.0000
     21 H           4.4229    3.9841    2.7202 H       1  LIG1        0.0000
     22 H           2.1174    0.6765    5.4628 H       1  LIG1        0.0000
     23 H           0.3862   -0.2550    6.8330 H       1  LIG1        0.0000
     24 H          -1.9055    0.1972    6.3324 H       1  LIG1        0.0000
     25 H          -2.4810    1.5762    4.4691 H       1  LIG1        0.0000
     26 H          -0.7556    2.5100    3.0924 H       1  LIG1        0.0000
@<TRIPOS>BOND
     1     1     2    1
     2     2     3    2
     3     2     4    2
     4     2     5    1
     5     5     6    1
     6     6     7    2
     7     7     8    1
     8     8     9    1
     9     9     5    2
    10     9    10    1
    11    10    11   ar
    12    11    12   ar
    13    12    13   ar
    14    13    14   ar
    15    14    15   ar
    16    15    10   ar
    17     8    16    1
    18     1    17    1
    19     1    18    1
    20     1    19    1
    21     6    20    1
    22     7    21    1
    23    11    22    1
    24    12    23    1
    25    13    24    1
    26    14    25    1
    27    15    26    1
