@<TRIPOS>MOLECULE
*****
 26 27 0 0 0
SMALL
USER_CHARGES

@<TRIPOS>ATOM
      1 C1          1.2601   -0.7381    1.4330 C.3     1  LIG1        0.0000
      2 S2          1.0000    1.0000    1.0000 S.O2    1  LIG1        0.0000
      3 O3          1.3445    1.2069   -0.3828 O.2     1  LIG1        0.0000
      4 O4         -0.3828    1.3445    1.2069 O.2     1  LIG1        0.0000
      5 C5          2.0045    2.0045    2.0045 C.2     1  LIG1        0.0000
      6 C6          2.8931    1.5705    3.0150 C.2     1  LIG1        0.0000
      7 C7          3.4742    2.6836    3.5489 C.2     1  LIG1        0.0000
      8 N8          2.9801    3.7853    2.9118 N.pl3   1  LIG1        0.0000
      9 C9          2.0852    3.3644    1.9745 C.2     1  LIG1        0.0000
     10 C10         1.3353    4.2298    1.0845 C.3     1  LIG1        0.0000
     11 C11         0.4752    5.1848    1.6164 C.3     1  LIG1        0.0000
     12 C12        -0.2407    6.0100    0.7555 C.3     1  LIG1        0.0000
     13 C13        -0.0923    5.8757   -0.6216 C.3     1  LIG1        0.0000
     14 C14         0.7703    4.9180   -1.1448 C.3     1  LIG1        0.0000
     15 C15         1.4896    4.0881   -0.2907 C.3     1  LIG1        0.0000
     16 H           3.2309    4.7348    3.1001 H       1  LIG1        0.0000
     17 H           1.0208   -0.8818    2.3933 H       1  LIG1        0.0000
     18 H           0.6827   -1.3154    0.8557 H       1  LIG1        0.0000
     19 H           2.2203   -0.9773    1.2893 H       1  LIG1        0.0000
     20 H           3.0639    0.6237    3.2877 H       1  LIG1        0.0000
     21 H           4.1506    2.6912    4.2853 H       1  LIG1        0.0000
     22 H           0.3726    5.2772    2.6069 H       1  LIG1        0.0000
     23 H          -0.8622    6.7001    1.1263 H       1  LIG1        0.0000
     24 H          -0.6083    6.4704   -1.2381 H       1  LIG1        0.0000
     25 H           0.8735    4.8260   -2.1352 H       1  LIG1        0.0000
     26 H           2.1106    3.3974   -0.6612 H       1  LIG1        0.0000
@<TRIPOS>BOND
     1     1     2    1
     2     2     3    2
     3     2     4    2
     4     2     5    1
     5     5     6    1
     6     6     7    2
     7     7     8    1
     8     8     9    1
     9     9     5    2
    10     9    10    1
    11    10    11   ar
    12    11    12   ar
    13    12    13   ar
    14    13    14   ar
    15    14    15   ar
    16    15    10   ar
    17     8    16    1
    18     1    17    1
    19     1    18    1
    20     1    19    1
    21     6    20    1
    22     7    21    1
    23    11    22    1
    24    12    23    1
    25    13    24    1
    26    14    25    1
    27    15    26    1
