@<TRIPOS>MOLECULE
*****
 26 27 0 0 0
SMALL
USER_CHARGES

@<TRIPOS>ATOM
      1 C1          1.2601   -0.7381    1.4330 C.3     1  LIG1        0.0000
      2 S2          1.0000    1.0000    1.0000 S.O2    1  LIG1        0.0000
      3 O3          1.3445    1.2069   -0.3828 O.2     1  LIG1        0.0000
      4 O4         -0.3828    1.3445    1.2069 O.2     1  LIG1        0.0000
      5 C5          2.0045    2.0045    2.0045 C.2     1  LIG1        0.0000
      6 C6          1.6588    2.5632    3.2565 C.2     1  LIG1        0.0000
      7 C7          2.7361    3.2787    3.6920 C.2     1  LIG1        0.0000
      8 N8          3.7300    3.1863    2.7608 N.pl3   1  LIG1        0.0000
      9 C9          3.2772    2.4108    1.7362 C.2     1  LIG1        0.0000
     10 C10         4.0324    2.0717    0.5454 C.3     1  LIG1        0.0000
     11 C11         4.8314    3.0358   -0.0605 C.3     1  LIG1        0.0000
     12 C12         5.5518    2.7021   -1.2026 C.3     1  LIG1        0.0000
     13 C13         5.4690    1.4158   -1.7270 C.3     1  LIG1        0.0000
     14 C14         4.6676    0.4579   -1.1144 C.3     1  LIG1        0.0000
     15 C15         3.9433    0.7836    0.0280 C.3     1  LIG1        0.0000
     16 H           4.6324    3.6131    2.8203 H       1  LIG1        0.0000
     17 H           1.0208   -0.8818    2.3933 H       1  LIG1        0.0000
     18 H           0.6827   -1.3154    0.8557 H       1  LIG1        0.0000
     19 H           2.2203   -0.9773    1.2893 H       1  LIG1        0.0000
     20 H           0.7870    2.4543    3.7340 H       1  LIG1        0.0000
     21 H           2.7887    3.7868    4.5517 H       1  LIG1        0.0000
     22 H           4.8874    3.9585    0.3208 H       1  LIG1        0.0000
     23 H           6.1294    3.3868   -1.6471 H       1  LIG1        0.0000
     24 H           5.9881    1.1788   -2.5482 H       1  LIG1        0.0000
     25 H           4.6121   -0.4651   -1.4951 H       1  LIG1        0.0000
     26 H           3.3651    0.0992    0.4722 H       1  LIG1        0.0000
@<TRIPOS>BOND
     1     1     2    1
     2     2     3    2
     3     2     4    2
     4     2     5    1
     5     5     6    1
     6     6     7    2
     7     7     8    1
     8     8     9    1
     9     9     5    2
    10     9    10    1
    11    10    11   ar
    12    11    12   ar
    13    12    13   ar
    14    13    14   ar
    15    14    15   ar
    16    15    10   ar
    17     8    16    1
    18     1    17    1
    19     1    18    1
    20     1    19    1
    21     6    20    1
    22     7    21    1
    23    11    22    1
    24    12    23    1
    25    13    24    1
    26    14    25    1
    27    15    26    1
