@<TRIPOS>MOLECULE
*****
 26 27 0 0 0
SMALL
USER_CHARGES

@<TRIPOS>ATOM
      1 C1          1.2601   -0.7381    1.4330 C.3     1  LIG1        0.0000
      2 S2          1.0000    1.0000    1.0000 S.O2    1  LIG1        0.0000
      3 O3          1.3445    1.2069   -0.3828 O.2     1  LIG1        0.0000
      4 O4         -0.3828    1.3445    1.2069 O.2     1  LIG1        0.0000
      5 C5          2.0045    2.0045    2.0045 C.2     1  LIG1        0.0000
      6 C6          3.4152    1.9707    2.0926 C.2     1  LIG1        0.0000
      7 C7          3.7875    2.9223    2.9969 C.2     1  LIG1        0.0000
      8 N8          2.6662    3.5396    3.4714 N.pl3   1  LIG1        0.0000
      9 C9          1.5850    2.9749    2.8642 C.2     1  LIG1        0.0000
     10 C10         0.2033    3.3485    3.0978 C.3     1  LIG1        0.0000
     11 C11        -0.3339    3.2345    4.3758 C.3     1  LIG1        0.0000
     12 C12        -1.6601    3.5944    4.5906 C.3     1  LIG1        0.0000
     13 C13        -2.4345    4.0628    3.5335 C.3     1  LIG1        0.0000
     14 C14        -1.8890    4.1738    2.2587 C.3     1  LIG1        0.0000
     15 C15        -0.5634    3.8153    2.0351 C.3     1  LIG1        0.0000
     16 H           2.6424    4.2771    4.1463 H       1  LIG1        0.0000
     17 H           1.0208   -0.8818    2.3933 H       1  LIG1        0.0000
     18 H           0.6827   -1.3154    0.8557 H       1  LIG1        0.0000
     19 H           2.2203   -0.9773    1.2893 H       1  LIG1        0.0000
     20 H           4.0265    1.3624    1.5863 H       1  LIG1        0.0000
     21 H           4.7269    3.1328    3.2675 H       1  LIG1        0.0000
     22 H           0.2273    2.8976    5.1318 H       1  LIG1        0.0000
     23 H          -2.0573    3.5165    5.5050 H       1  LIG1        0.0000
     24 H          -3.3877    4.3208    3.6910 H       1  LIG1        0.0000
     25 H          -2.4498    4.5114    1.5027 H       1  LIG1        0.0000
     26 H          -0.1662    3.8924    1.1206 H       1  LIG1        0.0000
@<TRIPOS>BOND
     1     1     2    1
     2     2     3    2
     3     2     4    2
     4     2     5    1
     5     5     6    1
     6     6     7    2
     7     7     8    1
     8     8     9    1
     9     9     5    2
    10     9    10    1
    11    10    11   ar
    12    11    12   ar
    13    12    13   ar
    14    13    14   ar
    15    14    15   ar
    16    15    10   ar
    17     8    16    1
    18     1    17    1
    19     1    18    1
    20     1    19    1
    21     6    20    1
    22     7    21    1
    23    11    22    1
    24    12    23    1
    25    13    24    1
    26    14    25    1
    27    15    26    1
