@<TRIPOS>MOLECULE
*****
 26 27 0 0 0
SMALL
USER_CHARGES

@<TRIPOS>ATOM
      1 C1          1.2601   -0.7381    1.4330 C.3     1  LIG1        0.0000
      2 S2          1.0000    1.0000    1.0000 S.O2    1  LIG1        0.0000
      3 O3          1.3445    1.2069   -0.3828 O.2     1  LIG1        0.0000
      4 O4         -0.3828    1.3445    1.2069 O.2     1  LIG1        0.0000
      5 C5          2.0045    2.0045    2.0045 C.2     1  LIG1        0.0000
      6 C6          1.5723    2.8745    3.0318 C.2     1  LIG1        0.0000
      7 C7          2.6845    3.4648    3.5574 C.2     1  LIG1        0.0000
      8 N8          3.7836    2.9973    2.8962 N.pl3   1  LIG1        0.0000
      9 C9          3.3620    2.1103    1.9518 C.2     1  LIG1        0.0000
     10 C10         4.2243    1.3919    1.0334 C.3     1  LIG1        0.0000
     11 C11         5.2051    0.5413    1.5328 C.3     1  LIG1        0.0000
     12 C12         6.0282   -0.1432    0.6447 C.3     1  LIG1        0.0000
     13 C13         5.8657    0.0262   -0.7269 C.3     1  LIG1        0.0000
     14 C14         4.8820    0.8786   -1.2176 C.3     1  LIG1        0.0000
     15 C15         4.0550    1.5676   -0.3361 C.3     1  LIG1        0.0000
     16 H           4.7320    3.2598    3.0740 H       1  LIG1        0.0000
     17 H           1.0208   -0.8818    2.3933 H       1  LIG1        0.0000
     18 H           0.6827   -1.3154    0.8557 H       1  LIG1        0.0000
     19 H           2.2203   -0.9773    1.2893 H       1  LIG1        0.0000
     20 H           0.6271    3.0285    3.3197 H       1  LIG1        0.0000
     21 H           2.6932    4.1303    4.3038 H       1  LIG1        0.0000
     22 H           5.3173    0.4233    2.5195 H       1  LIG1        0.0000
     23 H           6.7369   -0.7572    0.9921 H       1  LIG1        0.0000
     24 H           6.4590   -0.4674   -1.3629 H       1  LIG1        0.0000
     25 H           4.7693    0.9962   -2.2042 H       1  LIG1        0.0000
     26 H           3.3466    2.1822   -0.6832 H       1  LIG1        0.0000
@<TRIPOS>BOND
     1     1     2    1
     2     2     3    2
     3     2     4    2
     4     2     5    1
     5     5     6    1
     6     6     7    2
     7     7     8    1
     8     8     9    1
     9     9     5    2
    10     9    10    1
    11    10    11   ar
    12    11    12   ar
    13    12    13   ar
    14    13    14   ar
    15    14    15   ar
    16    15    10   ar
    17     8    16    1
    18     1    17    1
    19     1    18    1
    20     1    19    1
    21     6    20    1
    22     7    21    1
    23    11    22    1
    24    12    23    1
    25    13    24    1
    26    14    25    1
    27    15    26    1
