@<TRIPOS>MOLECULE
*****
 26 27 0 0 0
SMALL
USER_CHARGES

@<TRIPOS>ATOM
      1 C1          1.2601   -0.7381    1.4330 C.3     1  LIG1        0.0000
      2 S2          1.0000    1.0000    1.0000 S.O2    1  LIG1        0.0000
      3 O3          1.3445    1.2069   -0.3828 O.2     1  LIG1        0.0000
      4 O4         -0.3828    1.3445    1.2069 O.2     1  LIG1        0.0000
      5 C5          2.0045    2.0045    2.0045 C.2     1  LIG1        0.0000
      6 C6          2.8745    3.0318    1.5723 C.2     1  LIG1        0.0000
      7 C7          3.4648    3.5574    2.6845 C.2     1  LIG1        0.0000
      8 N8          2.9973    2.8962    3.7836 N.pl3   1  LIG1        0.0000
      9 C9          2.1103    1.9518    3.3620 C.2     1  LIG1        0.0000
     10 C10         1.3919    1.0334    4.2243 C.3     1  LIG1        0.0000
     11 C11         2.0436    0.4546    5.3084 C.3     1  LIG1        0.0000
     12 C12         1.3471   -0.4256    6.1298 C.3     1  LIG1        0.0000
     13 C13         0.0131   -0.7188    5.8635 C.3     1  LIG1        0.0000
     14 C14        -0.6308   -0.1352    4.7772 C.3     1  LIG1        0.0000
     15 C15         0.0588    0.7458    3.9503 C.3     1  LIG1        0.0000
     16 H           3.2598    3.0740    4.7320 H       1  LIG1        0.0000
     17 H           1.0208   -0.8818    2.3933 H       1  LIG1        0.0000
     18 H           0.6827   -1.3154    0.8557 H       1  LIG1        0.0000
     19 H           2.2203   -0.9773    1.2893 H       1  LIG1        0.0000
     20 H           3.0285    3.3197    0.6271 H       1  LIG1        0.0000
     21 H           4.1303    4.3038    2.6932 H       1  LIG1        0.0000
     22 H           3.0023    0.6691    5.4952 H       1  LIG1        0.0000
     23 H           1.8052   -0.8480    6.9119 H       1  LIG1        0.0000
     24 H          -0.4850   -1.3521    6.4558 H       1  LIG1        0.0000
     25 H          -1.5897   -0.3491    4.5907 H       1  LIG1        0.0000
     26 H          -0.3989    1.1677    3.1676 H       1  LIG1        0.0000
@<TRIPOS>BOND
     1     1     2    1
     2     2     3    2
     3     2     4    2
     4     2     5    1
     5     5     6    1
     6     6     7    2
     7     7     8    1
     8     8     9    1
     9     9     5    2
    10     9    10    1
    11    10    11   ar
    12    11    12   ar
    13    12    13   ar
    14    13    14   ar
    15    14    15   ar
    16    15    10   ar
    17     8    16    1
    18     1    17    1
    19     1    18    1
    20     1    19    1
    21     6    20    1
    22     7    21    1
    23    11    22    1
    24    12    23    1
    25    13    24    1
    26    14    25    1
    27    15    26    1
