@<TRIPOS>MOLECULE
*****
 26 27 0 0 0
SMALL
USER_CHARGES

@<TRIPOS>ATOM
      1 C1          1.2601   -0.7381    1.4330 C.3     1  LIG1        0.0000
      2 S2          1.0000    1.0000    1.0000 S.O2    1  LIG1        0.0000
      3 O3          1.3445    1.2069   -0.3828 O.2     1  LIG1        0.0000
      4 O4         -0.3828    1.3445    1.2069 O.2     1  LIG1        0.0000
      5 C5          2.0045    2.0045    2.0045 C.2     1  LIG1        0.0000
      6 C6          2.5837    1.6502    3.2447 C.2     1  LIG1        0.0000
      7 C7          3.2890    2.7317    3.6861 C.2     1  LIG1        0.0000
      8 N8          3.1674    3.7380    2.7717 N.pl3   1  LIG1        0.0000
      9 C9          2.3832    3.2889    1.7521 C.2     1  LIG1        0.0000
     10 C10         2.0095    4.0588    0.5812 C.3     1  LIG1        0.0000
     11 C11         2.9477    4.8871   -0.0260 C.3     1  LIG1        0.0000
     12 C12         2.5805    5.6225   -1.1480 C.3     1  LIG1        0.0000
     13 C13         1.2869    5.5250   -1.6518 C.3     1  LIG1        0.0000
     14 C14         0.3553    4.6939   -1.0383 C.3     1  LIG1        0.0000
     15 C15         0.7141    3.9554    0.0849 C.3     1  LIG1        0.0000
     16 H           3.5813    4.6459    2.8386 H       1  LIG1        0.0000
     17 H           1.0208   -0.8818    2.3933 H       1  LIG1        0.0000
     18 H           0.6827   -1.3154    0.8557 H       1  LIG1        0.0000
     19 H           2.2203   -0.9773    1.2893 H       1  LIG1        0.0000
     20 H           2.4933    0.7705    3.7116 H       1  LIG1        0.0000
     21 H           3.8092    2.7792    4.5388 H       1  LIG1        0.0000
     22 H           3.8759    4.9531    0.3401 H       1  LIG1        0.0000
     23 H           3.2463    6.2215   -1.5929 H       1  LIG1        0.0000
     24 H           1.0259    6.0549   -2.4586 H       1  LIG1        0.0000
     25 H          -0.5728    4.6272   -1.4047 H       1  LIG1        0.0000
     26 H           0.0483    3.3569    0.5304 H       1  LIG1        0.0000
@<TRIPOS>BOND
     1     1     2    1
     2     2     3    2
     3     2     4    2
     4     2     5    1
     5     5     6    1
     6     6     7    2
     7     7     8    1
     8     8     9    1
     9     9     5    2
    10     9    10    1
    11    10    11   ar
    12    11    12   ar
    13    12    13   ar
    14    13    14   ar
    15    14    15   ar
    16    15    10   ar
    17     8    16    1
    18     1    17    1
    19     1    18    1
    20     1    19    1
    21     6    20    1
    22     7    21    1
    23    11    22    1
    24    12    23    1
    25    13    24    1
    26    14    25    1
    27    15    26    1
