@<TRIPOS>MOLECULE
*****
 26 27 0 0 0
SMALL
USER_CHARGES

@<TRIPOS>ATOM
      1 C1          1.2601   -0.7381    1.4330 C.3     1  LIG1        0.0000
      2 S2          1.0000    1.0000    1.0000 S.O2    1  LIG1        0.0000
      3 O3          1.3445    1.2069   -0.3828 O.2     1  LIG1        0.0000
      4 O4         -0.3828    1.3445    1.2069 O.2     1  LIG1        0.0000
      5 C5          2.0045    2.0045    2.0045 C.2     1  LIG1        0.0000
      6 C6          1.5967    3.1397    2.7422 C.2     1  LIG1        0.0000
      7 C7          2.6995    3.6234    3.3839 C.2     1  LIG1        0.0000
      8 N8          3.7699    2.8358    3.0714 N.pl3   1  LIG1        0.0000
      9 C9          3.3398    1.8538    2.2305 C.2     1  LIG1        0.0000
     10 C10         4.1740    0.8115    1.6640 C.3     1  LIG1        0.0000
     11 C11         5.1505    0.2084    2.4499 C.3     1  LIG1        0.0000
     12 C12         5.9466   -0.7899    1.8982 C.3     1  LIG1        0.0000
     13 C13         5.7618   -1.1756    0.5740 C.3     1  LIG1        0.0000
     14 C14         4.7826   -0.5672   -0.2045 C.3     1  LIG1        0.0000
     15 C15         3.9825    0.4326    0.3393 C.3     1  LIG1        0.0000
     16 H           4.7058    2.9583    3.4018 H       1  LIG1        0.0000
     17 H           1.0208   -0.8818    2.3933 H       1  LIG1        0.0000
     18 H           0.6827   -1.3154    0.8557 H       1  LIG1        0.0000
     19 H           2.2203   -0.9773    1.2893 H       1  LIG1        0.0000
     20 H           0.6720    3.5178    2.7856 H       1  LIG1        0.0000
     21 H           2.7202    4.4229    3.9841 H       1  LIG1        0.0000
     22 H           5.2788    0.4894    3.4010 H       1  LIG1        0.0000
     23 H           6.6520   -1.2306    2.4534 H       1  LIG1        0.0000
     24 H           6.3356   -1.8937    0.1802 H       1  LIG1        0.0000
     25 H           4.6538   -0.8486   -1.1554 H       1  LIG1        0.0000
     26 H           3.2775    0.8740   -0.2159 H       1  LIG1        0.0000
@<TRIPOS>BOND
     1     1     2    1
     2     2     3    2
     3     2     4    2
     4     2     5    1
     5     5     6    1
     6     6     7    2
     7     7     8    1
     8     8     9    1
     9     9     5    2
    10     9    10    1
    11    10    11   ar
    12    11    12   ar
    13    12    13   ar
    14    13    14   ar
    15    14    15   ar
    16    15    10   ar
    17     8    16    1
    18     1    17    1
    19     1    18    1
    20     1    19    1
    21     6    20    1
    22     7    21    1
    23    11    22    1
    24    12    23    1
    25    13    24    1
    26    14    25    1
    27    15    26    1
