@<TRIPOS>MOLECULE
*****
 26 27 0 0 0
SMALL
USER_CHARGES

@<TRIPOS>ATOM
      1 C1          1.2601   -0.7381    1.4330 C.3     1  LIG1        0.0000
      2 S2          1.0000    1.0000    1.0000 S.O2    1  LIG1        0.0000
      3 O3          1.3445    1.2069   -0.3828 O.2     1  LIG1        0.0000
      4 O4         -0.3828    1.3445    1.2069 O.2     1  LIG1        0.0000
      5 C5          2.0045    2.0045    2.0045 C.2     1  LIG1        0.0000
      6 C6          3.1542    1.6020    2.7223 C.2     1  LIG1        0.0000
      7 C7          3.6307    2.7022    3.3738 C.2     1  LIG1        0.0000
      8 N8          2.8224    3.7650    3.0897 N.pl3   1  LIG1        0.0000
      9 C9          1.8342    3.3326    2.2573 C.2     1  LIG1        0.0000
     10 C10         0.7674    4.1579    1.7243 C.3     1  LIG1        0.0000
     11 C11         0.1600    5.1080    2.5387 C.3     1  LIG1        0.0000
     12 C12        -0.8629    5.8946    2.0196 C.3     1  LIG1        0.0000
     13 C13        -1.2683    5.7271    0.6989 C.3     1  LIG1        0.0000
     14 C14        -0.6551    4.7747   -0.1084 C.3     1  LIG1        0.0000
     15 C15         0.3684    3.9832    0.4032 C.3     1  LIG1        0.0000
     16 H           2.9357    4.6976    3.4326 H       1  LIG1        0.0000
     17 H           1.0208   -0.8818    2.3933 H       1  LIG1        0.0000
     18 H           0.6827   -1.3154    0.8557 H       1  LIG1        0.0000
     19 H           2.2203   -0.9773    1.2893 H       1  LIG1        0.0000
     20 H           3.5454    0.6821    2.7478 H       1  LIG1        0.0000
     21 H           4.4388    2.7260    3.9624 H       1  LIG1        0.0000
     22 H           0.4555    5.2242    3.4870 H       1  LIG1        0.0000
     23 H          -1.3072    6.5808    2.5956 H       1  LIG1        0.0000
     24 H          -2.0040    6.2942    0.3285 H       1  LIG1        0.0000
     25 H          -0.9500    4.6588   -1.0569 H       1  LIG1        0.0000
     26 H           0.8123    3.2965   -0.1724 H       1  LIG1        0.0000
@<TRIPOS>BOND
     1     1     2    1
     2     2     3    2
     3     2     4    2
     4     2     5    1
     5     5     6    1
     6     6     7    2
     7     7     8    1
     8     8     9    1
     9     9     5    2
    10     9    10    1
    11    10    11   ar
    12    11    12   ar
    13    12    13   ar
    14    13    14   ar
    15    14    15   ar
    16    15    10   ar
    17     8    16    1
    18     1    17    1
    19     1    18    1
    20     1    19    1
    21     6    20    1
    22     7    21    1
    23    11    22    1
    24    12    23    1
    25    13    24    1
    26    14    25    1
    27    15    26    1
