@<TRIPOS>MOLECULE
*****
 26 27 0 0 0
SMALL
USER_CHARGES

@<TRIPOS>ATOM
      1 C1          1.2601   -0.7381    1.4330 C.3     1  LIG1        0.0000
      2 S2          1.0000    1.0000    1.0000 S.O2    1  LIG1        0.0000
      3 O3          1.3445    1.2069   -0.3828 O.2     1  LIG1        0.0000
      4 O4         -0.3828    1.3445    1.2069 O.2     1  LIG1        0.0000
      5 C5          2.0045    2.0045    2.0045 C.2     1  LIG1        0.0000
      6 C6          3.3268    2.4225    1.7292 C.2     1  LIG1        0.0000
      7 C7          3.7351    3.1925    2.7791 C.2     1  LIG1        0.0000
      8 N8          2.7214    3.2651    3.6906 N.pl3   1  LIG1        0.0000
      9 C9          1.6722    2.5386    3.2133 C.2     1  LIG1        0.0000
     10 C10         0.4006    2.3613    3.8876 C.3     1  LIG1        0.0000
     11 C11        -0.1805    3.4350    4.5543 C.3     1  LIG1        0.0000
     12 C12        -1.3998    3.2558    5.1990 C.3     1  LIG1        0.0000
     13 C13        -2.0254    2.0130    5.1725 C.3     1  LIG1        0.0000
     14 C14        -1.4372    0.9449    4.5032 C.3     1  LIG1        0.0000
     15 C15        -0.2173    1.1154    3.8563 C.3     1  LIG1        0.0000
     16 H           2.7448    3.7641    4.5569 H       1  LIG1        0.0000
     17 H           1.0208   -0.8818    2.3933 H       1  LIG1        0.0000
     18 H           0.6827   -1.3154    0.8557 H       1  LIG1        0.0000
     19 H           2.2203   -0.9773    1.2893 H       1  LIG1        0.0000
     20 H           3.8632    2.1958    0.9162 H       1  LIG1        0.0000
     21 H           4.6294    3.6313    2.8665 H       1  LIG1        0.0000
     22 H           0.2734    4.3259    4.5698 H       1  LIG1        0.0000
     23 H          -1.8271    4.0203    5.6817 H       1  LIG1        0.0000
     24 H          -2.9021    1.8872    5.6370 H       1  LIG1        0.0000
     25 H          -1.8913    0.0541    4.4870 H       1  LIG1        0.0000
     26 H           0.2105    0.3509    3.3742 H       1  LIG1        0.0000
@<TRIPOS>BOND
     1     1     2    1
     2     2     3    2
     3     2     4    2
     4     2     5    1
     5     5     6    1
     6     6     7    2
     7     7     8    1
     8     8     9    1
     9     9     5    2
    10     9    10    1
    11    10    11   ar
    12    11    12   ar
    13    12    13   ar
    14    13    14   ar
    15    14    15   ar
    16    15    10   ar
    17     8    16    1
    18     1    17    1
    19     1    18    1
    20     1    19    1
    21     6    20    1
    22     7    21    1
    23    11    22    1
    24    12    23    1
    25    13    24    1
    26    14    25    1
    27    15    26    1
