@<TRIPOS>MOLECULE

  31   32
SMALL
USER_CHARGES
@<TRIPOS>ATOM
   1 C1           1.2925     1.2925    -0.4626 C.3          1    LIG   0.0000
   2 C2           1.0000     1.0000     1.0000 C.3          1    LIG   0.0000
   3 C3           1.8776     1.8776     1.8776 C.3          1    LIG   0.0000
   4 C4           1.5850     1.5850     3.3402 C.3          1    LIG   0.0000
   5 N5           2.4334     2.4334     4.1885 N.3          1    LIG   0.0000
   6 C6           1.8194     3.7604     4.2487 C.3          1    LIG   0.0000
   7 C7           2.6979     4.7524     5.0045 C.ar         1    LIG   0.0000
   8 C8           2.1533     5.9347     5.4995 C.ar         1    LIG   0.0000
   9 C9           2.9581     6.8627     6.1510 C.ar         1    LIG   0.0000
  10 C10          4.3158     6.6042     6.3037 C.ar         1    LIG   0.0000
  11 C11          4.8571     5.4205     5.8106 C.ar         1    LIG   0.0000
  12 C12          4.0532     4.4815     5.1694 C.ar         1    LIG   0.0000
  13 C13          4.5880     3.1599     4.6338 C.3          1    LIG   0.0000
  14 O14          3.6988     2.5824     3.6877 O.3          1    LIG   0.0000
  15 H            0.7152     0.7152    -1.0400 H            1    LIG   0.0000
  16 H            1.1001     2.2548    -0.6551 H            1    LIG   0.0000
  17 H            2.2548     1.1001    -0.6551 H            1    LIG   0.0000
  18 H            0.0377     1.1925     1.1925 H            1    LIG   0.0000
  19 H            1.1925     0.0377     1.1925 H            1    LIG   0.0000
  20 H            2.8398     1.6851     1.6851 H            1    LIG   0.0000
  21 H            1.6851     2.8398     1.6851 H            1    LIG   0.0000
  22 H            0.6228     1.7775     3.5326 H            1    LIG   0.0000
  23 H            1.7775     0.6228     3.5326 H            1    LIG   0.0000
  24 H            0.9370     3.6889     4.7135 H            1    LIG   0.0000
  25 H            1.6792     4.0956     3.3170 H            1    LIG   0.0000
  26 H            1.1767     6.1175     5.3856 H            1    LIG   0.0000
  27 H            2.5634     7.7097     6.5071 H            1    LIG   0.0000
  28 H            4.9026     7.2680     6.7673 H            1    LIG   0.0000
  29 H            5.8352     5.2422     5.9180 H            1    LIG   0.0000
  30 H            5.4710     3.3216     4.1931 H            1    LIG   0.0000
  31 H            4.7077     2.5248     5.3969 H            1    LIG   0.0000
@<TRIPOS>BOND
   1        1        2 1
   2        2        3 1
   3        3        4 1
   4        4        5 1
   5        5        6 1
   6        6        7 1
   7        7        8 ar
   8        8        9 ar
   9        9       10 ar
  10       10       11 ar
  11       11       12 ar
  12       12        7 ar
  13       12       13 1
  14       13       14 1
  15       14        5 1
  16        1       15 1
  17        1       16 1
  18        1       17 1
  19        2       18 1
  20        2       19 1
  21        3       20 1
  22        3       21 1
  23        4       22 1
  24        4       23 1
  25        6       24 1
  26        6       25 1
  27        8       26 1
  28        9       27 1
  29       10       28 1
  30       11       29 1
  31       13       30 1
  32       13       31 1

@<TRIPOS>MOLECULE

  31   32
SMALL
USER_CHARGES
@<TRIPOS>ATOM
   1 C1           1.2925     1.2925    -0.4626 C.3          1    LIG   0.0000
   2 C2           1.0000     1.0000     1.0000 C.3          1    LIG   0.0000
   3 C3           1.8776     1.8776     1.8776 C.3          1    LIG   0.0000
   4 C4           1.5850     1.5850     3.3402 C.3          1    LIG   0.0000
   5 N5           2.4334     2.4334     4.1885 N.3          1    LIG   0.0000
   6 C6           3.7604     1.8194     4.2487 C.3          1    LIG   0.0000
   7 C7           4.6796     2.5611     5.2141 C.ar         1    LIG   0.0000
   8 C8           6.0595     2.3877     5.1403 C.ar         1    LIG   0.0000
   9 C9           6.8994     3.0270     6.0453 C.ar         1    LIG   0.0000
  10 C10          6.3518     3.8414     7.0304 C.ar         1    LIG   0.0000
  11 C11          4.9726     4.0153     7.1003 C.ar         1    LIG   0.0000
  12 C12          4.1277     3.3883     6.1879 C.ar         1    LIG   0.0000
  13 C13          2.6150     3.5639     6.2029 C.3          1    LIG   0.0000
  14 O14          1.9633     2.5353     5.4703 O.3          1    LIG   0.0000
  15 H            0.7152     0.7152    -1.0400 H            1    LIG   0.0000
  16 H            1.1001     2.2548    -0.6551 H            1    LIG   0.0000
  17 H            2.2548     1.1001    -0.6551 H            1    LIG   0.0000
  18 H            0.0377     1.1925     1.1925 H            1    LIG   0.0000
  19 H            1.1925     0.0377     1.1925 H            1    LIG   0.0000
  20 H            2.8398     1.6851     1.6851 H            1    LIG   0.0000
  21 H            1.6851     2.8398     1.6851 H            1    LIG   0.0000
  22 H            0.6228     1.7775     3.5326 H            1    LIG   0.0000
  23 H            1.7775     0.6228     3.5326 H            1    LIG   0.0000
  24 H            4.1675     1.8365     3.3354 H            1    LIG   0.0000
  25 H            3.6660     0.8718     4.5539 H            1    LIG   0.0000
  26 H            6.4488     1.7995     4.4315 H            1    LIG   0.0000
  27 H            7.8899     2.9021     5.9882 H            1    LIG   0.0000
  28 H            6.9482     4.3017     7.6880 H            1    LIG   0.0000
  29 H            4.5837     4.5976     7.8142 H            1    LIG   0.0000
  30 H            2.2947     3.5411     7.1499 H            1    LIG   0.0000
  31 H            2.3866     4.4479     5.7949 H            1    LIG   0.0000
@<TRIPOS>BOND
   1        1        2 1
   2        2        3 1
   3        3        4 1
   4        4        5 1
   5        5        6 1
   6        6        7 1
   7        7        8 ar
   8        8        9 ar
   9        9       10 ar
  10       10       11 ar
  11       11       12 ar
  12       12        7 ar
  13       12       13 1
  14       13       14 1
  15       14        5 1
  16        1       15 1
  17        1       16 1
  18        1       17 1
  19        2       18 1
  20        2       19 1
  21        3       20 1
  22        3       21 1
  23        4       22 1
  24        4       23 1
  25        6       24 1
  26        6       25 1
  27        8       26 1
  28        9       27 1
  29       10       28 1
  30       11       29 1
  31       13       30 1
  32       13       31 1

@<TRIPOS>MOLECULE

  31   32
SMALL
USER_CHARGES
@<TRIPOS>ATOM
   1 C1           1.2925     1.2925    -0.4626 C.3          1    LIG   0.0000
   2 C2           1.0000     1.0000     1.0000 C.3          1    LIG   0.0000
   3 C3           1.8776     1.8776     1.8776 C.3          1    LIG   0.0000
   4 C4           1.5850     1.5850     3.3402 C.3          1    LIG   0.0000
   5 N5           2.4334     2.4334     4.1885 N.3          1    LIG   0.0000
   6 C6           2.4935     1.8194     5.5156 C.3          1    LIG   0.0000
   7 C7           3.2493     2.6979     6.5076 C.ar         1    LIG   0.0000
   8 C8           3.7443     2.1533     7.6898 C.ar         1    LIG   0.0000
   9 C9           4.3958     2.9581     8.6178 C.ar         1    LIG   0.0000
  10 C10          4.5485     4.3158     8.3593 C.ar         1    LIG   0.0000
  11 C11          4.0554     4.8571     7.1756 C.ar         1    LIG   0.0000
  12 C12          3.4142     4.0532     6.2366 C.ar         1    LIG   0.0000
  13 C13          2.8787     4.5880     4.9151 C.3          1    LIG   0.0000
  14 O14          1.9326     3.6988     4.3375 O.3          1    LIG   0.0000
  15 H            0.7152     0.7152    -1.0400 H            1    LIG   0.0000
  16 H            1.1001     2.2548    -0.6551 H            1    LIG   0.0000
  17 H            2.2548     1.1001    -0.6551 H            1    LIG   0.0000
  18 H            0.0377     1.1925     1.1925 H            1    LIG   0.0000
  19 H            1.1925     0.0377     1.1925 H            1    LIG   0.0000
  20 H            2.8398     1.6851     1.6851 H            1    LIG   0.0000
  21 H            1.6851     2.8398     1.6851 H            1    LIG   0.0000
  22 H            0.6228     1.7775     3.5326 H            1    LIG   0.0000
  23 H            1.7775     0.6228     3.5326 H            1    LIG   0.0000
  24 H            2.9584     0.9370     5.4440 H            1    LIG   0.0000
  25 H            1.5619     1.6792     5.8507 H            1    LIG   0.0000
  26 H            3.6305     1.1767     7.8726 H            1    LIG   0.0000
  27 H            4.7519     2.5634     9.4648 H            1    LIG   0.0000
  28 H            5.0121     4.9026     9.0231 H            1    LIG   0.0000
  29 H            4.1629     5.8352     6.9973 H            1    LIG   0.0000
  30 H            2.4380     5.4710     5.0767 H            1    LIG   0.0000
  31 H            3.6418     4.7077     4.2800 H            1    LIG   0.0000
@<TRIPOS>BOND
   1        1        2 1
   2        2        3 1
   3        3        4 1
   4        4        5 1
   5        5        6 1
   6        6        7 1
   7        7        8 ar
   8        8        9 ar
   9        9       10 ar
  10       10       11 ar
  11       11       12 ar
  12       12        7 ar
  13       12       13 1
  14       13       14 1
  15       14        5 1
  16        1       15 1
  17        1       16 1
  18        1       17 1
  19        2       18 1
  20        2       19 1
  21        3       20 1
  22        3       21 1
  23        4       22 1
  24        4       23 1
  25        6       24 1
  26        6       25 1
  27        8       26 1
  28        9       27 1
  29       10       28 1
  30       11       29 1
  31       13       30 1
  32       13       31 1

@<TRIPOS>MOLECULE

  31   32
SMALL
USER_CHARGES
@<TRIPOS>ATOM
   1 C1           1.2925     1.2925    -0.4626 C.3          1    LIG   0.0000
   2 C2           1.0000     1.0000     1.0000 C.3          1    LIG   0.0000
   3 C3           1.8776     1.8776     1.8776 C.3          1    LIG   0.0000
   4 C4           1.5850     1.5850     3.3402 C.3          1    LIG   0.0000
   5 N5           2.4334     2.4334     4.1885 N.3          1    LIG   0.0000
   6 C6           1.8194     2.4935     5.5156 C.3          1    LIG   0.0000
   7 C7           2.5611     3.4590     6.4348 C.ar         1    LIG   0.0000
   8 C8           2.3877     3.3851     7.8146 C.ar         1    LIG   0.0000
   9 C9           3.0270     4.2902     8.6545 C.ar         1    LIG   0.0000
  10 C10          3.8414     5.2753     8.1069 C.ar         1    LIG   0.0000
  11 C11          4.0153     5.3451     6.7277 C.ar         1    LIG   0.0000
  12 C12          3.3883     4.4328     5.8829 C.ar         1    LIG   0.0000
  13 C13          3.5639     4.4477     4.3702 C.3          1    LIG   0.0000
  14 O14          2.5353     3.7151     3.7185 O.3          1    LIG   0.0000
  15 H            0.7152     0.7152    -1.0400 H            1    LIG   0.0000
  16 H            1.1001     2.2548    -0.6551 H            1    LIG   0.0000
  17 H            2.2548     1.1001    -0.6551 H            1    LIG   0.0000
  18 H            0.0377     1.1925     1.1925 H            1    LIG   0.0000
  19 H            1.1925     0.0377     1.1925 H            1    LIG   0.0000
  20 H            2.8398     1.6851     1.6851 H            1    LIG   0.0000
  21 H            1.6851     2.8398     1.6851 H            1    LIG   0.0000
  22 H            0.6228     1.7775     3.5326 H            1    LIG   0.0000
  23 H            1.7775     0.6228     3.5326 H            1    LIG   0.0000
  24 H            1.8365     1.5803     5.9226 H            1    LIG   0.0000
  25 H            0.8718     2.7988     5.4211 H            1    LIG   0.0000
  26 H            1.7995     2.6764     8.2040 H            1    LIG   0.0000
  27 H            2.9021     4.2331     9.6450 H            1    LIG   0.0000
  28 H            4.3017     5.9328     8.7034 H            1    LIG   0.0000
  29 H            4.5976     6.0591     6.3388 H            1    LIG   0.0000
  30 H            3.5411     5.3947     4.0498 H            1    LIG   0.0000
  31 H            4.4479     4.0398     4.1417 H            1    LIG   0.0000
@<TRIPOS>BOND
   1        1        2 1
   2        2        3 1
   3        3        4 1
   4        4        5 1
   5        5        6 1
   6        6        7 1
   7        7        8 ar
   8        8        9 ar
   9        9       10 ar
  10       10       11 ar
  11       11       12 ar
  12       12        7 ar
  13       12       13 1
  14       13       14 1
  15       14        5 1
  16        1       15 1
  17        1       16 1
  18        1       17 1
  19        2       18 1
  20        2       19 1
  21        3       20 1
  22        3       21 1
  23        4       22 1
  24        4       23 1
  25        6       24 1
  26        6       25 1
  27        8       26 1
  28        9       27 1
  29       10       28 1
  30       11       29 1
  31       13       30 1
  32       13       31 1

@<TRIPOS>MOLECULE

  31   32
SMALL
USER_CHARGES
@<TRIPOS>ATOM
   1 C1           1.2925     1.2925    -0.4626 C.3          1    LIG   0.0000
   2 C2           1.0000     1.0000     1.0000 C.3          1    LIG   0.0000
   3 C3           1.8776     1.8776     1.8776 C.3          1    LIG   0.0000
   4 C4           1.5850     1.5850     3.3402 C.3          1    LIG   0.0000
   5 N5           2.4338     2.4338     4.1890 N.3          1    LIG   0.0000
   6 C6           1.8090     3.7614     4.2422 C.3          1    LIG   0.0000
   7 C7           2.4729     4.6992     5.2408 C.ar         1    LIG   0.0000
   8 C8           2.2806     6.0787     5.2166 C.ar         1    LIG   0.0000
   9 C9           2.8803     6.8985     6.1655 C.ar         1    LIG   0.0000
  10 C10          3.6863     6.3428     7.1544 C.ar         1    LIG   0.0000
  11 C11          3.8875     4.9663     7.1821 C.ar         1    LIG   0.0000
  12 C12          3.2911     4.1464     6.2300 C.ar         1    LIG   0.0000
  13 C13          3.5408     2.6427     6.2380 C.3          1    LIG   0.0000
  14 O14          2.6185     1.8952     5.4410 O.3          1    LIG   0.0000
  15 H            0.7152     0.7152    -1.0400 H            1    LIG   0.0000
  16 H            1.1001     2.2548    -0.6551 H            1    LIG   0.0000
  17 H            2.2548     1.1001    -0.6551 H            1    LIG   0.0000
  18 H            0.0377     1.1925     1.1925 H            1    LIG   0.0000
  19 H            1.1925     0.0377     1.1925 H            1    LIG   0.0000
  20 H            2.8398     1.6851     1.6851 H            1    LIG   0.0000
  21 H            1.6851     2.8398     1.6851 H            1    LIG   0.0000
  22 H            0.6228     1.7775     3.5326 H            1    LIG   0.0000
  23 H            1.7775     0.6228     3.5326 H            1    LIG   0.0000
  24 H            0.8493     3.6505     4.5004 H            1    LIG   0.0000
  25 H            1.8640     4.1748     3.3333 H            1    LIG   0.0000
  26 H            1.7038     6.4844     4.5076 H            1    LIG   0.0000
  27 H            2.7327     7.8872     6.1375 H            1    LIG   0.0000
  28 H            4.1178     6.9286     7.8405 H            1    LIG   0.0000
  29 H            4.4654     4.5634     7.8918 H            1    LIG   0.0000
  30 H            4.4636     2.4755     5.8910 H            1    LIG   0.0000
  31 H            3.4756     2.3183     7.1817 H            1    LIG   0.0000
@<TRIPOS>BOND
   1        1        2 1
   2        2        3 1
   3        3        4 1
   4        4        5 1
   5        5        6 1
   6        6        7 1
   7        7        8 ar
   8        8        9 ar
   9        9       10 ar
  10       10       11 ar
  11       11       12 ar
  12       12        7 ar
  13       12       13 1
  14       13       14 1
  15       14        5 1
  16        1       15 1
  17        1       16 1
  18        1       17 1
  19        2       18 1
  20        2       19 1
  21        3       20 1
  22        3       21 1
  23        4       22 1
  24        4       23 1
  25        6       24 1
  26        6       25 1
  27        8       26 1
  28        9       27 1
  29       10       28 1
  30       11       29 1
  31       13       30 1
  32       13       31 1

@<TRIPOS>MOLECULE

  31   32
SMALL
USER_CHARGES
@<TRIPOS>ATOM
   1 C1           1.2925     1.2925    -0.4626 C.3          1    LIG   0.0000
   2 C2           1.0000     1.0000     1.0000 C.3          1    LIG   0.0000
   3 C3           1.8776     1.8776     1.8776 C.3          1    LIG   0.0000
   4 C4           1.5850     1.5850     3.3402 C.3          1    LIG   0.0000
   5 N5           2.4338     2.4338     4.1890 N.3          1    LIG   0.0000
   6 C6           3.7614     1.8090     4.2422 C.3          1    LIG   0.0000
   7 C7           4.8068     2.6751     4.9310 C.ar         1    LIG   0.0000
   8 C8           6.0166     2.1640     5.3953 C.ar         1    LIG   0.0000
   9 C9           6.9590     2.9939     5.9915 C.ar         1    LIG   0.0000
  10 C10          6.6977     4.3534     6.1323 C.ar         1    LIG   0.0000
  11 C11          5.4894     4.8706     5.6759 C.ar         1    LIG   0.0000
  12 C12          4.5446     4.0395     5.0834 C.ar         1    LIG   0.0000
  13 C13          3.2059     4.5992     4.6165 C.3          1    LIG   0.0000
  14 O14          2.4873     3.7314     3.7359 O.3          1    LIG   0.0000
  15 H            0.7152     0.7152    -1.0400 H            1    LIG   0.0000
  16 H            1.1001     2.2548    -0.6551 H            1    LIG   0.0000
  17 H            2.2548     1.1001    -0.6551 H            1    LIG   0.0000
  18 H            0.0377     1.1925     1.1925 H            1    LIG   0.0000
  19 H            1.1925     0.0377     1.1925 H            1    LIG   0.0000
  20 H            2.8398     1.6851     1.6851 H            1    LIG   0.0000
  21 H            1.6851     2.8398     1.6851 H            1    LIG   0.0000
  22 H            0.6228     1.7775     3.5326 H            1    LIG   0.0000
  23 H            1.7775     0.6228     3.5326 H            1    LIG   0.0000
  24 H            4.0650     1.6285     3.3067 H            1    LIG   0.0000
  25 H            3.6861     0.9454     4.7407 H            1    LIG   0.0000
  26 H            6.2097     1.1876     5.2985 H            1    LIG   0.0000
  27 H            7.8241     2.6141     6.3191 H            1    LIG   0.0000
  28 H            7.3738     4.9545     6.5585 H            1    LIG   0.0000
  29 H            5.2987     5.8473     5.7747 H            1    LIG   0.0000
  30 H            2.6384     4.7698     5.4220 H            1    LIG   0.0000
  31 H            3.3750     5.4615     4.1391 H            1    LIG   0.0000
@<TRIPOS>BOND
   1        1        2 1
   2        2        3 1
   3        3        4 1
   4        4        5 1
   5        5        6 1
   6        6        7 1
   7        7        8 ar
   8        8        9 ar
   9        9       10 ar
  10       10       11 ar
  11       11       12 ar
  12       12        7 ar
  13       12       13 1
  14       13       14 1
  15       14        5 1
  16        1       15 1
  17        1       16 1
  18        1       17 1
  19        2       18 1
  20        2       19 1
  21        3       20 1
  22        3       21 1
  23        4       22 1
  24        4       23 1
  25        6       24 1
  26        6       25 1
  27        8       26 1
  28        9       27 1
  29       10       28 1
  30       11       29 1
  31       13       30 1
  32       13       31 1

@<TRIPOS>MOLECULE

  31   32
SMALL
USER_CHARGES
@<TRIPOS>ATOM
   1 C1           1.2925     1.2925    -0.4626 C.3          1    LIG   0.0000
   2 C2           1.0000     1.0000     1.0000 C.3          1    LIG   0.0000
   3 C3           1.8776     1.8776     1.8776 C.3          1    LIG   0.0000
   4 C4           1.5850     1.5850     3.3402 C.3          1    LIG   0.0000
   5 N5           2.4338     2.4338     4.1890 N.3          1    LIG   0.0000
   6 C6           1.8090     2.4871     5.5165 C.3          1    LIG   0.0000
   7 C7           2.6751     3.1759     6.5619 C.ar         1    LIG   0.0000
   8 C8           2.1640     3.6402     7.7718 C.ar         1    LIG   0.0000
   9 C9           2.9939     4.2364     8.7141 C.ar         1    LIG   0.0000
  10 C10          4.3534     4.3772     8.4529 C.ar         1    LIG   0.0000
  11 C11          4.8706     3.9208     7.2445 C.ar         1    LIG   0.0000
  12 C12          4.0395     3.3282     6.2998 C.ar         1    LIG   0.0000
  13 C13          4.5992     2.8613     4.9610 C.3          1    LIG   0.0000
  14 O14          3.7314     1.9808     4.2425 O.3          1    LIG   0.0000
  15 H            0.7152     0.7152    -1.0400 H            1    LIG   0.0000
  16 H            1.1001     2.2548    -0.6551 H            1    LIG   0.0000
  17 H            2.2548     1.1001    -0.6551 H            1    LIG   0.0000
  18 H            0.0377     1.1925     1.1925 H            1    LIG   0.0000
  19 H            1.1925     0.0377     1.1925 H            1    LIG   0.0000
  20 H            2.8398     1.6851     1.6851 H            1    LIG   0.0000
  21 H            1.6851     2.8398     1.6851 H            1    LIG   0.0000
  22 H            0.6228     1.7775     3.5326 H            1    LIG   0.0000
  23 H            1.7775     0.6228     3.5326 H            1    LIG   0.0000
  24 H            1.6285     1.5515     5.8202 H            1    LIG   0.0000
  25 H            0.9454     2.9856     5.4412 H            1    LIG   0.0000
  26 H            1.1876     3.5433     7.9648 H            1    LIG   0.0000
  27 H            2.6141     4.5640     9.5793 H            1    LIG   0.0000
  28 H            4.9545     4.8033     9.1289 H            1    LIG   0.0000
  29 H            5.8473     4.0196     7.0539 H            1    LIG   0.0000
  30 H            4.7698     3.6668     4.3935 H            1    LIG   0.0000
  31 H            5.4615     2.3840     5.1301 H            1    LIG   0.0000
@<TRIPOS>BOND
   1        1        2 1
   2        2        3 1
   3        3        4 1
   4        4        5 1
   5        5        6 1
   6        6        7 1
   7        7        8 ar
   8        8        9 ar
   9        9       10 ar
  10       10       11 ar
  11       11       12 ar
  12       12        7 ar
  13       12       13 1
  14       13       14 1
  15       14        5 1
  16        1       15 1
  17        1       16 1
  18        1       17 1
  19        2       18 1
  20        2       19 1
  21        3       20 1
  22        3       21 1
  23        4       22 1
  24        4       23 1
  25        6       24 1
  26        6       25 1
  27        8       26 1
  28        9       27 1
  29       10       28 1
  30       11       29 1
  31       13       30 1
  32       13       31 1

@<TRIPOS>MOLECULE

  31   32
SMALL
USER_CHARGES
@<TRIPOS>ATOM
   1 C1           1.2925     1.2925    -0.4626 C.3          1    LIG   0.0000
   2 C2           1.0000     1.0000     1.0000 C.3          1    LIG   0.0000
   3 C3           1.8776     1.8776     1.8776 C.3          1    LIG   0.0000
   4 C4           1.5850     1.5850     3.3402 C.3          1    LIG   0.0000
   5 N5           1.8172     2.7962     4.1375 N.3          1    LIG   0.0000
   6 C6           3.2716     2.9072     4.3653 C.3          1    LIG   0.0000
   7 C7           3.5424     4.1651     5.1791 C.ar         1    LIG   0.0000
   8 C8           4.4796     4.2250     6.2183 C.ar         1    LIG   0.0000
   9 C9           4.6814     5.3907     6.9530 C.ar         1    LIG   0.0000
  10 C10          3.9274     6.5141     6.6238 C.ar         1    LIG   0.0000
  11 C11          3.0059     6.4356     5.5793 C.ar         1    LIG   0.0000
  12 C12          2.7931     5.2780     4.8294 C.ar         1    LIG   0.0000
  13 C13          1.8066     5.1432     3.6682 C.3          1    LIG   0.0000
  14 O14          1.2396     3.8462     3.4556 O.3          1    LIG   0.0000
  15 H            0.7152     0.7152    -1.0400 H            1    LIG   0.0000
  16 H            1.1001     2.2548    -0.6551 H            1    LIG   0.0000
  17 H            2.2548     1.1001    -0.6551 H            1    LIG   0.0000
  18 H            0.0377     1.1925     1.1925 H            1    LIG   0.0000
  19 H            1.1925     0.0377     1.1925 H            1    LIG   0.0000
  20 H            2.8398     1.6851     1.6851 H            1    LIG   0.0000
  21 H            1.6851     2.8398     1.6851 H            1    LIG   0.0000
  22 H            0.6320     1.2987     3.4387 H            1    LIG   0.0000
  23 H            2.1876     0.8542     3.6609 H            1    LIG   0.0000
  24 H            3.7464     2.9655     3.4872 H            1    LIG   0.0000
  25 H            3.5959     2.1052     4.8670 H            1    LIG   0.0000
  26 H            5.0169     3.4107     6.4381 H            1    LIG   0.0000
  27 H            5.3494     5.4201     7.6965 H            1    LIG   0.0000
  28 H            4.0452     7.3680     7.1306 H            1    LIG   0.0000
  29 H            2.4706     7.2503     5.3566 H            1    LIG   0.0000
  30 H            1.0536     5.7798     3.8345 H            1    LIG   0.0000
  31 H            2.2861     5.4055     2.8308 H            1    LIG   0.0000
@<TRIPOS>BOND
   1        1        2 1
   2        2        3 1
   3        3        4 1
   4        4        5 1
   5        5        6 1
   6        6        7 1
   7        7        8 ar
   8        8        9 ar
   9        9       10 ar
  10       10       11 ar
  11       11       12 ar
  12       12        7 ar
  13       12       13 1
  14       13       14 1
  15       14        5 1
  16        1       15 1
  17        1       16 1
  18        1       17 1
  19        2       18 1
  20        2       19 1
  21        3       20 1
  22        3       21 1
  23        4       22 1
  24        4       23 1
  25        6       24 1
  26        6       25 1
  27        8       26 1
  28        9       27 1
  29       10       28 1
  30       11       29 1
  31       13       30 1
  32       13       31 1

@<TRIPOS>MOLECULE

  31   32
SMALL
USER_CHARGES
@<TRIPOS>ATOM
   1 C1           1.2925     1.2925    -0.4626 C.3          1    LIG   0.0000
   2 C2           1.0000     1.0000     1.0000 C.3          1    LIG   0.0000
   3 C3           1.8776     1.8776     1.8776 C.3          1    LIG   0.0000
   4 C4           1.5850     1.5850     3.3402 C.3          1    LIG   0.0000
   5 N5           1.8172     2.7962     4.1375 N.3          1    LIG   0.0000
   6 C6           1.0850     2.6386     5.4098 C.3          1    LIG   0.0000
   7 C7           1.3208     3.8767     6.2639 C.ar         1    LIG   0.0000
   8 C8           0.3187     4.4908     7.0259 C.ar         1    LIG   0.0000
   9 C9           0.5714     5.6359     7.7770 C.ar         1    LIG   0.0000
  10 C10          1.8608     6.1613     7.7612 C.ar         1    LIG   0.0000
  11 C11          2.8462     5.5291     7.0028 C.ar         1    LIG   0.0000
  12 C12          2.6130     4.3789     6.2476 C.ar         1    LIG   0.0000
  13 C13          3.6595     3.6407     5.4110 C.3          1    LIG   0.0000
  14 O14          3.1826     2.9497     4.2516 O.3          1    LIG   0.0000
  15 H            0.7152     0.7152    -1.0400 H            1    LIG   0.0000
  16 H            1.1001     2.2548    -0.6551 H            1    LIG   0.0000
  17 H            2.2548     1.1001    -0.6551 H            1    LIG   0.0000
  18 H            0.0377     1.1925     1.1925 H            1    LIG   0.0000
  19 H            1.1925     0.0377     1.1925 H            1    LIG   0.0000
  20 H            2.8398     1.6851     1.6851 H            1    LIG   0.0000
  21 H            1.6851     2.8398     1.6851 H            1    LIG   0.0000
  22 H            0.6320     1.2987     3.4387 H            1    LIG   0.0000
  23 H            2.1876     0.8542     3.6609 H            1    LIG   0.0000
  24 H            1.4184     1.8285     5.8920 H            1    LIG   0.0000
  25 H            0.1073     2.5380     5.2254 H            1    LIG   0.0000
  26 H           -0.6006     4.0972     7.0307 H            1    LIG   0.0000
  27 H           -0.1534     6.0690     8.3129 H            1    LIG   0.0000
  28 H            2.0781     6.9831     8.2879 H            1    LIG   0.0000
  29 H            3.7667     5.9199     7.0001 H            1    LIG   0.0000
  30 H            4.3343     4.3132     5.1070 H            1    LIG   0.0000
  31 H            4.1026     2.9683     6.0039 H            1    LIG   0.0000
@<TRIPOS>BOND
   1        1        2 1
   2        2        3 1
   3        3        4 1
   4        4        5 1
   5        5        6 1
   6        6        7 1
   7        7        8 ar
   8        8        9 ar
   9        9       10 ar
  10       10       11 ar
  11       11       12 ar
  12       12        7 ar
  13       12       13 1
  14       13       14 1
  15       14        5 1
  16        1       15 1
  17        1       16 1
  18        1       17 1
  19        2       18 1
  20        2       19 1
  21        3       20 1
  22        3       21 1
  23        4       22 1
  24        4       23 1
  25        6       24 1
  26        6       25 1
  27        8       26 1
  28        9       27 1
  29       10       28 1
  30       11       29 1
  31       13       30 1
  32       13       31 1

@<TRIPOS>MOLECULE

  31   32
SMALL
USER_CHARGES
@<TRIPOS>ATOM
   1 C1           1.2925     1.2925    -0.4626 C.3          1    LIG   0.0000
   2 C2           1.0000     1.0000     1.0000 C.3          1    LIG   0.0000
   3 C3           1.8776     1.8776     1.8776 C.3          1    LIG   0.0000
   4 C4           1.5850     1.5850     3.3402 C.3          1    LIG   0.0000
   5 N5           2.7966     1.8173     4.1378 N.3          1    LIG   0.0000
   6 C6           2.8819     3.2741     4.3495 C.3          1    LIG   0.0000
   7 C7           4.1229     3.5719     5.1777 C.ar         1    LIG   0.0000
   8 C8           4.1396     4.5269     6.1983 C.ar         1    LIG   0.0000
   9 C9           5.3070     4.7120     6.9325 C.ar         1    LIG   0.0000
  10 C10          6.4452     3.9641     6.6497 C.ar         1    LIG   0.0000
  11 C11          6.3935     3.0364     5.6131 C.ar         1    LIG   0.0000
  12 C12          5.2445     2.8199     4.8518 C.ar         1    LIG   0.0000
  13 C13          5.1495     1.8288     3.6961 C.3          1    LIG   0.0000
  14 O14          3.8565     1.2695     3.4462 O.3          1    LIG   0.0000
  15 H            0.7152     0.7152    -1.0400 H            1    LIG   0.0000
  16 H            1.1001     2.2548    -0.6551 H            1    LIG   0.0000
  17 H            2.2548     1.1001    -0.6551 H            1    LIG   0.0000
  18 H            0.0377     1.1925     1.1925 H            1    LIG   0.0000
  19 H            1.1925     0.0377     1.1925 H            1    LIG   0.0000
  20 H            2.8398     1.6851     1.6851 H            1    LIG   0.0000
  21 H            1.6851     2.8398     1.6851 H            1    LIG   0.0000
  22 H            0.8542     2.1876     3.6609 H            1    LIG   0.0000
  23 H            1.2987     0.6320     3.4387 H            1    LIG   0.0000
  24 H            2.0680     3.5922     4.8357 H            1    LIG   0.0000
  25 H            2.9462     3.7397     3.4668 H            1    LIG   0.0000
  26 H            3.3238     5.0696     6.3981 H            1    LIG   0.0000
  27 H            5.3279     5.3880     7.6692 H            1    LIG   0.0000
  28 H            7.2835     4.0903     7.1802 H            1    LIG   0.0000
  29 H            7.2136     2.5031     5.4056 H            1    LIG   0.0000
  30 H            5.4432     2.3008     2.8649 H            1    LIG   0.0000
  31 H            5.7759     1.0738     3.8897 H            1    LIG   0.0000
@<TRIPOS>BOND
   1        1        2 1
   2        2        3 1
   3        3        4 1
   4        4        5 1
   5        5        6 1
   6        6        7 1
   7        7        8 ar
   8        8        9 ar
   9        9       10 ar
  10       10       11 ar
  11       11       12 ar
  12       12        7 ar
  13       12       13 1
  14       13       14 1
  15       14        5 1
  16        1       15 1
  17        1       16 1
  18        1       17 1
  19        2       18 1
  20        2       19 1
  21        3       20 1
  22        3       21 1
  23        4       22 1
  24        4       23 1
  25        6       24 1
  26        6       25 1
  27        8       26 1
  28        9       27 1
  29       10       28 1
  30       11       29 1
  31       13       30 1
  32       13       31 1

@<TRIPOS>MOLECULE

  31   32
SMALL
USER_CHARGES
@<TRIPOS>ATOM
   1 C1           1.2925     1.2925    -0.4626 C.3          1    LIG   0.0000
   2 C2           1.0000     1.0000     1.0000 C.3          1    LIG   0.0000
   3 C3           1.8776     1.8776     1.8776 C.3          1    LIG   0.0000
   4 C4           1.5850     1.5850     3.3402 C.3          1    LIG   0.0000
   5 N5           2.7966     1.8173     4.1378 N.3          1    LIG   0.0000
   6 C6           2.6120     1.0763     5.3993 C.3          1    LIG   0.0000
   7 C7           3.8455     1.2798     6.2662 C.ar         1    LIG   0.0000
   8 C8           4.4172     0.2517     7.0213 C.ar         1    LIG   0.0000
   9 C9           5.5675     0.5135     7.7592 C.ar         1    LIG   0.0000
  10 C10          6.1364     1.7828     7.7539 C.ar         1    LIG   0.0000
  11 C11          5.5261     2.7843     7.0040 C.ar         1    LIG   0.0000
  12 C12          4.3722     2.5652     6.2510 C.ar         1    LIG   0.0000
  13 C13          3.6604     3.6371     5.4314 C.3          1    LIG   0.0000
  14 O14          2.9393     3.1812     4.2828 O.3          1    LIG   0.0000
  15 H            0.7152     0.7152    -1.0400 H            1    LIG   0.0000
  16 H            1.1001     2.2548    -0.6551 H            1    LIG   0.0000
  17 H            2.2548     1.1001    -0.6551 H            1    LIG   0.0000
  18 H            0.0377     1.1925     1.1925 H            1    LIG   0.0000
  19 H            1.1925     0.0377     1.1925 H            1    LIG   0.0000
  20 H            2.8398     1.6851     1.6851 H            1    LIG   0.0000
  21 H            1.6851     2.8398     1.6851 H            1    LIG   0.0000
  22 H            0.8542     2.1876     3.6609 H            1    LIG   0.0000
  23 H            1.2987     0.6320     3.4387 H            1    LIG   0.0000
  24 H            2.4943     0.1026     5.2041 H            1    LIG   0.0000
  25 H            1.8038     1.4206     5.8771 H            1    LIG   0.0000
  26 H            4.0052    -0.6594     7.0309 H            1    LIG   0.0000
  27 H            5.9883    -0.2166     8.2977 H            1    LIG   0.0000
  28 H            6.9668     1.9719     8.2779 H            1    LIG   0.0000
  29 H            5.9315     3.6985     7.0050 H            1    LIG   0.0000
  30 H            3.0114     4.1010     6.0344 H            1    LIG   0.0000
  31 H            4.3503     4.2900     5.1188 H            1    LIG   0.0000
@<TRIPOS>BOND
   1        1        2 1
   2        2        3 1
   3        3        4 1
   4        4        5 1
   5        5        6 1
   6        6        7 1
   7        7        8 ar
   8        8        9 ar
   9        9       10 ar
  10       10       11 ar
  11       11       12 ar
  12       12        7 ar
  13       12       13 1
  14       13       14 1
  15       14        5 1
  16        1       15 1
  17        1       16 1
  18        1       17 1
  19        2       18 1
  20        2       19 1
  21        3       20 1
  22        3       21 1
  23        4       22 1
  24        4       23 1
  25        6       24 1
  26        6       25 1
  27        8       26 1
  28        9       27 1
  29       10       28 1
  30       11       29 1
  31       13       30 1
  32       13       31 1

@<TRIPOS>MOLECULE

  31   32
SMALL
USER_CHARGES
@<TRIPOS>ATOM
   1 C1           1.2925     1.2925    -0.4626 C.3          1    LIG   0.0000
   2 C2           1.0000     1.0000     1.0000 C.3          1    LIG   0.0000
   3 C3           1.8776     1.8776     1.8776 C.3          1    LIG   0.0000
   4 C4           2.1701     1.1568     3.1834 C.3          1    LIG   0.0000
   5 N5           3.4836     1.5778     3.6920 N.3          1    LIG   0.0000
   6 C6           3.9349     0.5503     4.6387 C.3          1    LIG   0.0000
   7 C7           5.3695     0.7517     5.1065 C.ar         1    LIG   0.0000
   8 C8           5.8854     0.1216     6.2367 C.ar         1    LIG   0.0000
   9 C9           7.2104     0.3071     6.6137 C.ar         1    LIG   0.0000
  10 C10          8.0385     1.1327     5.8593 C.ar         1    LIG   0.0000
  11 C11          7.5292     1.7698     4.7321 C.ar         1    LIG   0.0000
  12 C12          6.2022     1.5877     4.3574 C.ar         1    LIG   0.0000
  13 C13          5.6342     2.3142     3.1438 C.3          1    LIG   0.0000
  14 O14          4.3899     1.7852     2.6783 O.3          1    LIG   0.0000
  15 H            0.7152     0.7152    -1.0400 H            1    LIG   0.0000
  16 H            1.1001     2.2548    -0.6551 H            1    LIG   0.0000
  17 H            2.2548     1.1001    -0.6551 H            1    LIG   0.0000
  18 H            0.0377     1.1925     1.1925 H            1    LIG   0.0000
  19 H            1.1925     0.0377     1.1925 H            1    LIG   0.0000
  20 H            2.7367     2.0700     1.4034 H            1    LIG   0.0000
  21 H            1.4034     2.7367     2.0700 H            1    LIG   0.0000
  22 H            1.4644     1.3836     3.8547 H            1    LIG   0.0000
  23 H            2.1747     0.1693     3.0254 H            1    LIG   0.0000
  24 H            3.8685    -0.3427     4.1936 H            1    LIG   0.0000
  25 H            3.3346     0.5697     5.4382 H            1    LIG   0.0000
  26 H            5.2950    -0.4718     6.7838 H            1    LIG   0.0000
  27 H            7.5684    -0.1524     7.4265 H            1    LIG   0.0000
  28 H            8.9930     1.2672     6.1255 H            1    LIG   0.0000
  29 H            8.1217     2.3632     4.1872 H            1    LIG   0.0000
  30 H            5.4959     3.2740     3.3882 H            1    LIG   0.0000
  31 H            6.2999     2.2522     2.4002 H            1    LIG   0.0000
@<TRIPOS>BOND
   1        1        2 1
   2        2        3 1
   3        3        4 1
   4        4        5 1
   5        5        6 1
   6        6        7 1
   7        7        8 ar
   8        8        9 ar
   9        9       10 ar
  10       10       11 ar
  11       11       12 ar
  12       12        7 ar
  13       12       13 1
  14       13       14 1
  15       14        5 1
  16        1       15 1
  17        1       16 1
  18        1       17 1
  19        2       18 1
  20        2       19 1
  21        3       20 1
  22        3       21 1
  23        4       22 1
  24        4       23 1
  25        6       24 1
  26        6       25 1
  27        8       26 1
  28        9       27 1
  29       10       28 1
  30       11       29 1
  31       13       30 1
  32       13       31 1

@<TRIPOS>MOLECULE

  31   32
SMALL
USER_CHARGES
@<TRIPOS>ATOM
   1 C1           1.2925     1.2925    -0.4626 C.3          1    LIG   0.0000
   2 C2           1.0000     1.0000     1.0000 C.3          1    LIG   0.0000
   3 C3           1.8776     1.8776     1.8776 C.3          1    LIG   0.0000
   4 C4           2.1701     1.1568     3.1834 C.3          1    LIG   0.0000
   5 N5           3.4827     1.5774     3.6916 N.3          1    LIG   0.0000
   6 C6           4.4875     0.8089     2.9339 C.3          1    LIG   0.0000
   7 C7           5.8723     1.2102     3.4195 C.ar         1    LIG   0.0000
   8 C8           6.9555     1.3867     2.5538 C.ar         1    LIG   0.0000
   9 C9           8.1804     1.7902     3.0764 C.ar         1    LIG   0.0000
  10 C10          8.3286     2.0065     4.4424 C.ar         1    LIG   0.0000
  11 C11          7.2307     1.8016     5.2734 C.ar         1    LIG   0.0000
  12 C12          5.9857     1.3966     4.7915 C.ar         1    LIG   0.0000
  13 C13          4.7628     1.1420     5.6672 C.3          1    LIG   0.0000
  14 O14          3.4884     1.3545     5.0525 O.3          1    LIG   0.0000
  15 H            0.7152     0.7152    -1.0400 H            1    LIG   0.0000
  16 H            1.1001     2.2548    -0.6551 H            1    LIG   0.0000
  17 H            2.2548     1.1001    -0.6551 H            1    LIG   0.0000
  18 H            0.0377     1.1925     1.1925 H            1    LIG   0.0000
  19 H            1.1925     0.0377     1.1925 H            1    LIG   0.0000
  20 H            2.7367     2.0700     1.4034 H            1    LIG   0.0000
  21 H            1.4034     2.7367     2.0700 H            1    LIG   0.0000
  22 H            1.4644     1.3836     3.8547 H            1    LIG   0.0000
  23 H            2.1747     0.1693     3.0254 H            1    LIG   0.0000
  24 H            4.4008     1.0109     1.9583 H            1    LIG   0.0000
  25 H            4.3477    -0.1697     3.0854 H            1    LIG   0.0000
  26 H            6.8516     1.2251     1.5724 H            1    LIG   0.0000
  27 H            8.9601     1.9257     2.4651 H            1    LIG   0.0000
  28 H            9.2059     2.3030     4.8198 H            1    LIG   0.0000
  29 H            7.3389     1.9510     6.2562 H            1    LIG   0.0000
  30 H            4.7991     0.1904     5.9723 H            1    LIG   0.0000
  31 H            4.8238     1.7487     6.4597 H            1    LIG   0.0000
@<TRIPOS>BOND
   1        1        2 1
   2        2        3 1
   3        3        4 1
   4        4        5 1
   5        5        6 1
   6        6        7 1
   7        7        8 ar
   8        8        9 ar
   9        9       10 ar
  10       10       11 ar
  11       11       12 ar
  12       12        7 ar
  13       12       13 1
  14       13       14 1
  15       14        5 1
  16        1       15 1
  17        1       16 1
  18        1       17 1
  19        2       18 1
  20        2       19 1
  21        3       20 1
  22        3       21 1
  23        4       22 1
  24        4       23 1
  25        6       24 1
  26        6       25 1
  27        8       26 1
  28        9       27 1
  29       10       28 1
  30       11       29 1
  31       13       30 1
  32       13       31 1

@<TRIPOS>MOLECULE

  31   32
SMALL
USER_CHARGES
@<TRIPOS>ATOM
   1 C1           1.2925     1.2925    -0.4626 C.3          1    LIG   0.0000
   2 C2           1.0000     1.0000     1.0000 C.3          1    LIG   0.0000
   3 C3           1.8776     1.8776     1.8776 C.3          1    LIG   0.0000
   4 C4           1.1568     2.1701     3.1834 C.3          1    LIG   0.0000
   5 N5           1.5773     3.4822     3.6914 N.3          1    LIG   0.0000
   6 C6           0.8217     4.5101     2.9485 C.3          1    LIG   0.0000
   7 C7           1.2284     5.8828     3.4665 C.ar         1    LIG   0.0000
   8 C8           1.4290     6.9927     2.6360 C.ar         1    LIG   0.0000
   9 C9           1.8223     8.2263     3.1485 C.ar         1    LIG   0.0000
  10 C10          2.0073     8.3380     4.5241 C.ar         1    LIG   0.0000
  11 C11          1.7935     7.2227     5.3343 C.ar         1    LIG   0.0000
  12 C12          1.3951     5.9801     4.8395 C.ar         1    LIG   0.0000
  13 C13          1.1349     4.7317     5.6844 C.3          1    LIG   0.0000
  14 O14          1.3811     3.4693     5.0561 O.3          1    LIG   0.0000
  15 H            0.7152     0.7152    -1.0400 H            1    LIG   0.0000
  16 H            1.1001     2.2548    -0.6551 H            1    LIG   0.0000
  17 H            2.2548     1.1001    -0.6551 H            1    LIG   0.0000
  18 H            0.0377     1.1925     1.1925 H            1    LIG   0.0000
  19 H            1.1925     0.0377     1.1925 H            1    LIG   0.0000
  20 H            2.7367     1.4034     2.0700 H            1    LIG   0.0000
  21 H            2.0700     2.7367     1.4034 H            1    LIG   0.0000
  22 H            0.1693     2.1747     3.0254 H            1    LIG   0.0000
  23 H            1.3836     1.4644     3.8547 H            1    LIG   0.0000
  24 H           -0.1590     4.3743     3.0890 H            1    LIG   0.0000
  25 H            1.0312     4.4427     1.9730 H            1    LIG   0.0000
  26 H            1.2862     6.8968     1.6508 H            1    LIG   0.0000
  27 H            1.9679     9.0105     2.5452 H            1    LIG   0.0000
  28 H            2.2905     9.2084     4.9269 H            1    LIG   0.0000
  29 H            1.9327     7.3185     6.3199 H            1    LIG   0.0000
  30 H            1.7189     4.7864     6.4943 H            1    LIG   0.0000
  31 H            0.1749     4.7493     5.9639 H            1    LIG   0.0000
@<TRIPOS>BOND
   1        1        2 1
   2        2        3 1
   3        3        4 1
   4        4        5 1
   5        5        6 1
   6        6        7 1
   7        7        8 ar
   8        8        9 ar
   9        9       10 ar
  10       10       11 ar
  11       11       12 ar
  12       12        7 ar
  13       12       13 1
  14       13       14 1
  15       14        5 1
  16        1       15 1
  17        1       16 1
  18        1       17 1
  19        2       18 1
  20        2       19 1
  21        3       20 1
  22        3       21 1
  23        4       22 1
  24        4       23 1
  25        6       24 1
  26        6       25 1
  27        8       26 1
  28        9       27 1
  29       10       28 1
  30       11       29 1
  31       13       30 1
  32       13       31 1

