@<TRIPOS>MOLECULE
*****
 31 32 0 0 0
SMALL
USER_CHARGES

@<TRIPOS>ATOM
      1 C1          1.2925    1.2925   -0.4626 C.3     1  LIG1        0.0000
      2 C2          1.0000    1.0000    1.0000 C.3     1  LIG1        0.0000
      3 C3          1.8776    1.8776    1.8776 C.3     1  LIG1        0.0000
      4 C4          2.1701    1.1568    3.1834 C.3     1  LIG1        0.0000
      5 N5          3.4827    1.5774    3.6916 N.3     1  LIG1        0.0000
      6 C6          4.4875    0.8089    2.9339 C.3     1  LIG1        0.0000
      7 C7          5.8723    1.2102    3.4195 C.ar    1  LIG1        0.0000
      8 C8          6.9555    1.3867    2.5538 C.ar    1  LIG1        0.0000
      9 C9          8.1804    1.7902    3.0764 C.ar    1  LIG1        0.0000
     10 C10         8.3286    2.0065    4.4424 C.ar    1  LIG1        0.0000
     11 C11         7.2307    1.8016    5.2734 C.ar    1  LIG1        0.0000
     12 C12         5.9857    1.3966    4.7915 C.ar    1  LIG1        0.0000
     13 C13         4.7628    1.1420    5.6672 C.3     1  LIG1        0.0000
     14 O14         3.4884    1.3545    5.0525 O.3     1  LIG1        0.0000
     15 H           0.7152    0.7152   -1.0400 H       1  LIG1        0.0000
     16 H           1.1001    2.2548   -0.6551 H       1  LIG1        0.0000
     17 H           2.2548    1.1001   -0.6551 H       1  LIG1        0.0000
     18 H           0.0377    1.1925    1.1925 H       1  LIG1        0.0000
     19 H           1.1925    0.0377    1.1925 H       1  LIG1        0.0000
     20 H           2.7367    2.0700    1.4034 H       1  LIG1        0.0000
     21 H           1.4034    2.7367    2.0700 H       1  LIG1        0.0000
     22 H           1.4644    1.3836    3.8547 H       1  LIG1        0.0000
     23 H           2.1747    0.1693    3.0254 H       1  LIG1        0.0000
     24 H           4.4008    1.0109    1.9583 H       1  LIG1        0.0000
     25 H           4.3477   -0.1697    3.0854 H       1  LIG1        0.0000
     26 H           6.8516    1.2251    1.5724 H       1  LIG1        0.0000
     27 H           8.9601    1.9257    2.4651 H       1  LIG1        0.0000
     28 H           9.2059    2.3030    4.8198 H       1  LIG1        0.0000
     29 H           7.3389    1.9510    6.2562 H       1  LIG1        0.0000
     30 H           4.7991    0.1904    5.9723 H       1  LIG1        0.0000
     31 H           4.8238    1.7487    6.4597 H       1  LIG1        0.0000
@<TRIPOS>BOND
     1     1     2    1
     2     2     3    1
     3     3     4    1
     4     4     5    1
     5     5     6    1
     6     6     7    1
     7     7     8   ar
     8     8     9   ar
     9     9    10   ar
    10    10    11   ar
    11    11    12   ar
    12    12     7   ar
    13    12    13    1
    14    13    14    1
    15    14     5    1
    16     1    15    1
    17     1    16    1
    18     1    17    1
    19     2    18    1
    20     2    19    1
    21     3    20    1
    22     3    21    1
    23     4    22    1
    24     4    23    1
    25     6    24    1
    26     6    25    1
    27     8    26    1
    28     9    27    1
    29    10    28    1
    30    11    29    1
    31    13    30    1
    32    13    31    1
