@<TRIPOS>MOLECULE
*****
 31 32 0 0 0
SMALL
USER_CHARGES

@<TRIPOS>ATOM
      1 C1          1.2925    1.2925   -0.4626 C.3     1  LIG1        0.0000
      2 C2          1.0000    1.0000    1.0000 C.3     1  LIG1        0.0000
      3 C3          1.8776    1.8776    1.8776 C.3     1  LIG1        0.0000
      4 C4          1.5850    1.5850    3.3402 C.3     1  LIG1        0.0000
      5 N5          2.4334    2.4334    4.1885 N.3     1  LIG1        0.0000
      6 C6          1.8194    2.4935    5.5156 C.3     1  LIG1        0.0000
      7 C7          2.5611    3.4590    6.4348 C.ar    1  LIG1        0.0000
      8 C8          2.3877    3.3851    7.8146 C.ar    1  LIG1        0.0000
      9 C9          3.0270    4.2902    8.6545 C.ar    1  LIG1        0.0000
     10 C10         3.8414    5.2753    8.1069 C.ar    1  LIG1        0.0000
     11 C11         4.0153    5.3451    6.7277 C.ar    1  LIG1        0.0000
     12 C12         3.3883    4.4328    5.8829 C.ar    1  LIG1        0.0000
     13 C13         3.5639    4.4477    4.3702 C.3     1  LIG1        0.0000
     14 O14         2.5353    3.7151    3.7185 O.3     1  LIG1        0.0000
     15 H           0.7152    0.7152   -1.0400 H       1  LIG1        0.0000
     16 H           1.1001    2.2548   -0.6551 H       1  LIG1        0.0000
     17 H           2.2548    1.1001   -0.6551 H       1  LIG1        0.0000
     18 H           0.0377    1.1925    1.1925 H       1  LIG1        0.0000
     19 H           1.1925    0.0377    1.1925 H       1  LIG1        0.0000
     20 H           2.8398    1.6851    1.6851 H       1  LIG1        0.0000
     21 H           1.6851    2.8398    1.6851 H       1  LIG1        0.0000
     22 H           0.6228    1.7775    3.5326 H       1  LIG1        0.0000
     23 H           1.7775    0.6228    3.5326 H       1  LIG1        0.0000
     24 H           1.8365    1.5803    5.9226 H       1  LIG1        0.0000
     25 H           0.8718    2.7988    5.4211 H       1  LIG1        0.0000
     26 H           1.7995    2.6764    8.2040 H       1  LIG1        0.0000
     27 H           2.9021    4.2331    9.6450 H       1  LIG1        0.0000
     28 H           4.3017    5.9328    8.7034 H       1  LIG1        0.0000
     29 H           4.5976    6.0591    6.3388 H       1  LIG1        0.0000
     30 H           3.5411    5.3947    4.0498 H       1  LIG1        0.0000
     31 H           4.4479    4.0398    4.1417 H       1  LIG1        0.0000
@<TRIPOS>BOND
     1     1     2    1
     2     2     3    1
     3     3     4    1
     4     4     5    1
     5     5     6    1
     6     6     7    1
     7     7     8   ar
     8     8     9   ar
     9     9    10   ar
    10    10    11   ar
    11    11    12   ar
    12    12     7   ar
    13    12    13    1
    14    13    14    1
    15    14     5    1
    16     1    15    1
    17     1    16    1
    18     1    17    1
    19     2    18    1
    20     2    19    1
    21     3    20    1
    22     3    21    1
    23     4    22    1
    24     4    23    1
    25     6    24    1
    26     6    25    1
    27     8    26    1
    28     9    27    1
    29    10    28    1
    30    11    29    1
    31    13    30    1
    32    13    31    1
