@<TRIPOS>MOLECULE
*****
 31 32 0 0 0
SMALL
USER_CHARGES

@<TRIPOS>ATOM
      1 C1          1.2925    1.2925   -0.4626 C.3     1  LIG1        0.0000
      2 C2          1.0000    1.0000    1.0000 C.3     1  LIG1        0.0000
      3 C3          1.8776    1.8776    1.8776 C.3     1  LIG1        0.0000
      4 C4          1.5850    1.5850    3.3402 C.3     1  LIG1        0.0000
      5 N5          2.7966    1.8173    4.1378 N.3     1  LIG1        0.0000
      6 C6          2.8819    3.2741    4.3495 C.3     1  LIG1        0.0000
      7 C7          4.1229    3.5719    5.1777 C.ar    1  LIG1        0.0000
      8 C8          4.1396    4.5269    6.1983 C.ar    1  LIG1        0.0000
      9 C9          5.3070    4.7120    6.9325 C.ar    1  LIG1        0.0000
     10 C10         6.4452    3.9641    6.6497 C.ar    1  LIG1        0.0000
     11 C11         6.3935    3.0364    5.6131 C.ar    1  LIG1        0.0000
     12 C12         5.2445    2.8199    4.8518 C.ar    1  LIG1        0.0000
     13 C13         5.1495    1.8288    3.6961 C.3     1  LIG1        0.0000
     14 O14         3.8565    1.2695    3.4462 O.3     1  LIG1        0.0000
     15 H           0.7152    0.7152   -1.0400 H       1  LIG1        0.0000
     16 H           1.1001    2.2548   -0.6551 H       1  LIG1        0.0000
     17 H           2.2548    1.1001   -0.6551 H       1  LIG1        0.0000
     18 H           0.0377    1.1925    1.1925 H       1  LIG1        0.0000
     19 H           1.1925    0.0377    1.1925 H       1  LIG1        0.0000
     20 H           2.8398    1.6851    1.6851 H       1  LIG1        0.0000
     21 H           1.6851    2.8398    1.6851 H       1  LIG1        0.0000
     22 H           0.8542    2.1876    3.6609 H       1  LIG1        0.0000
     23 H           1.2987    0.6320    3.4387 H       1  LIG1        0.0000
     24 H           2.0680    3.5922    4.8357 H       1  LIG1        0.0000
     25 H           2.9462    3.7397    3.4668 H       1  LIG1        0.0000
     26 H           3.3238    5.0696    6.3981 H       1  LIG1        0.0000
     27 H           5.3279    5.3880    7.6692 H       1  LIG1        0.0000
     28 H           7.2835    4.0903    7.1802 H       1  LIG1        0.0000
     29 H           7.2136    2.5031    5.4056 H       1  LIG1        0.0000
     30 H           5.4432    2.3008    2.8649 H       1  LIG1        0.0000
     31 H           5.7759    1.0738    3.8897 H       1  LIG1        0.0000
@<TRIPOS>BOND
     1     1     2    1
     2     2     3    1
     3     3     4    1
     4     4     5    1
     5     5     6    1
     6     6     7    1
     7     7     8   ar
     8     8     9   ar
     9     9    10   ar
    10    10    11   ar
    11    11    12   ar
    12    12     7   ar
    13    12    13    1
    14    13    14    1
    15    14     5    1
    16     1    15    1
    17     1    16    1
    18     1    17    1
    19     2    18    1
    20     2    19    1
    21     3    20    1
    22     3    21    1
    23     4    22    1
    24     4    23    1
    25     6    24    1
    26     6    25    1
    27     8    26    1
    28     9    27    1
    29    10    28    1
    30    11    29    1
    31    13    30    1
    32    13    31    1
