@<TRIPOS>MOLECULE
*****
 31 32 0 0 0
SMALL
USER_CHARGES

@<TRIPOS>ATOM
      1 C1          1.2925    1.2925   -0.4626 C.3     1  LIG1        0.0000
      2 C2          1.0000    1.0000    1.0000 C.3     1  LIG1        0.0000
      3 C3          1.8776    1.8776    1.8776 C.3     1  LIG1        0.0000
      4 C4          1.5850    1.5850    3.3402 C.3     1  LIG1        0.0000
      5 N5          2.4334    2.4334    4.1885 N.3     1  LIG1        0.0000
      6 C6          3.7604    1.8194    4.2487 C.3     1  LIG1        0.0000
      7 C7          4.6796    2.5611    5.2141 C.ar    1  LIG1        0.0000
      8 C8          6.0595    2.3877    5.1403 C.ar    1  LIG1        0.0000
      9 C9          6.8994    3.0270    6.0453 C.ar    1  LIG1        0.0000
     10 C10         6.3518    3.8414    7.0304 C.ar    1  LIG1        0.0000
     11 C11         4.9726    4.0153    7.1003 C.ar    1  LIG1        0.0000
     12 C12         4.1277    3.3883    6.1879 C.ar    1  LIG1        0.0000
     13 C13         2.6150    3.5639    6.2029 C.3     1  LIG1        0.0000
     14 O14         1.9633    2.5353    5.4703 O.3     1  LIG1        0.0000
     15 H           0.7152    0.7152   -1.0400 H       1  LIG1        0.0000
     16 H           1.1001    2.2548   -0.6551 H       1  LIG1        0.0000
     17 H           2.2548    1.1001   -0.6551 H       1  LIG1        0.0000
     18 H           0.0377    1.1925    1.1925 H       1  LIG1        0.0000
     19 H           1.1925    0.0377    1.1925 H       1  LIG1        0.0000
     20 H           2.8398    1.6851    1.6851 H       1  LIG1        0.0000
     21 H           1.6851    2.8398    1.6851 H       1  LIG1        0.0000
     22 H           0.6228    1.7775    3.5326 H       1  LIG1        0.0000
     23 H           1.7775    0.6228    3.5326 H       1  LIG1        0.0000
     24 H           4.1675    1.8365    3.3354 H       1  LIG1        0.0000
     25 H           3.6660    0.8718    4.5539 H       1  LIG1        0.0000
     26 H           6.4488    1.7995    4.4315 H       1  LIG1        0.0000
     27 H           7.8899    2.9021    5.9882 H       1  LIG1        0.0000
     28 H           6.9482    4.3017    7.6880 H       1  LIG1        0.0000
     29 H           4.5837    4.5976    7.8142 H       1  LIG1        0.0000
     30 H           2.2947    3.5411    7.1499 H       1  LIG1        0.0000
     31 H           2.3866    4.4479    5.7949 H       1  LIG1        0.0000
@<TRIPOS>BOND
     1     1     2    1
     2     2     3    1
     3     3     4    1
     4     4     5    1
     5     5     6    1
     6     6     7    1
     7     7     8   ar
     8     8     9   ar
     9     9    10   ar
    10    10    11   ar
    11    11    12   ar
    12    12     7   ar
    13    12    13    1
    14    13    14    1
    15    14     5    1
    16     1    15    1
    17     1    16    1
    18     1    17    1
    19     2    18    1
    20     2    19    1
    21     3    20    1
    22     3    21    1
    23     4    22    1
    24     4    23    1
    25     6    24    1
    26     6    25    1
    27     8    26    1
    28     9    27    1
    29    10    28    1
    30    11    29    1
    31    13    30    1
    32    13    31    1
