@<TRIPOS>MOLECULE
*****
 31 32 0 0 0
SMALL
USER_CHARGES

@<TRIPOS>ATOM
      1 C1          1.2925    1.2925   -0.4626 C.3     1  LIG1        0.0000
      2 C2          1.0000    1.0000    1.0000 C.3     1  LIG1        0.0000
      3 C3          1.8776    1.8776    1.8776 C.3     1  LIG1        0.0000
      4 C4          1.5850    1.5850    3.3402 C.3     1  LIG1        0.0000
      5 N5          2.4338    2.4338    4.1890 N.3     1  LIG1        0.0000
      6 C6          3.7614    1.8090    4.2422 C.3     1  LIG1        0.0000
      7 C7          4.8068    2.6751    4.9310 C.ar    1  LIG1        0.0000
      8 C8          6.0166    2.1640    5.3953 C.ar    1  LIG1        0.0000
      9 C9          6.9590    2.9939    5.9915 C.ar    1  LIG1        0.0000
     10 C10         6.6977    4.3534    6.1323 C.ar    1  LIG1        0.0000
     11 C11         5.4894    4.8706    5.6759 C.ar    1  LIG1        0.0000
     12 C12         4.5446    4.0395    5.0834 C.ar    1  LIG1        0.0000
     13 C13         3.2059    4.5992    4.6165 C.3     1  LIG1        0.0000
     14 O14         2.4873    3.7314    3.7359 O.3     1  LIG1        0.0000
     15 H           0.7152    0.7152   -1.0400 H       1  LIG1        0.0000
     16 H           1.1001    2.2548   -0.6551 H       1  LIG1        0.0000
     17 H           2.2548    1.1001   -0.6551 H       1  LIG1        0.0000
     18 H           0.0377    1.1925    1.1925 H       1  LIG1        0.0000
     19 H           1.1925    0.0377    1.1925 H       1  LIG1        0.0000
     20 H           2.8398    1.6851    1.6851 H       1  LIG1        0.0000
     21 H           1.6851    2.8398    1.6851 H       1  LIG1        0.0000
     22 H           0.6228    1.7775    3.5326 H       1  LIG1        0.0000
     23 H           1.7775    0.6228    3.5326 H       1  LIG1        0.0000
     24 H           4.0650    1.6285    3.3067 H       1  LIG1        0.0000
     25 H           3.6861    0.9454    4.7407 H       1  LIG1        0.0000
     26 H           6.2097    1.1876    5.2985 H       1  LIG1        0.0000
     27 H           7.8241    2.6141    6.3191 H       1  LIG1        0.0000
     28 H           7.3738    4.9545    6.5585 H       1  LIG1        0.0000
     29 H           5.2987    5.8473    5.7747 H       1  LIG1        0.0000
     30 H           2.6384    4.7698    5.4220 H       1  LIG1        0.0000
     31 H           3.3750    5.4615    4.1391 H       1  LIG1        0.0000
@<TRIPOS>BOND
     1     1     2    1
     2     2     3    1
     3     3     4    1
     4     4     5    1
     5     5     6    1
     6     6     7    1
     7     7     8   ar
     8     8     9   ar
     9     9    10   ar
    10    10    11   ar
    11    11    12   ar
    12    12     7   ar
    13    12    13    1
    14    13    14    1
    15    14     5    1
    16     1    15    1
    17     1    16    1
    18     1    17    1
    19     2    18    1
    20     2    19    1
    21     3    20    1
    22     3    21    1
    23     4    22    1
    24     4    23    1
    25     6    24    1
    26     6    25    1
    27     8    26    1
    28     9    27    1
    29    10    28    1
    30    11    29    1
    31    13    30    1
    32    13    31    1
