@<TRIPOS>MOLECULE
*****
 31 32 0 0 0
SMALL
USER_CHARGES

@<TRIPOS>ATOM
      1 C1          1.2925    1.2925   -0.4626 C.3     1  LIG1        0.0000
      2 C2          1.0000    1.0000    1.0000 C.3     1  LIG1        0.0000
      3 C3          1.8776    1.8776    1.8776 C.3     1  LIG1        0.0000
      4 C4          1.5850    1.5850    3.3402 C.3     1  LIG1        0.0000
      5 N5          2.7966    1.8173    4.1378 N.3     1  LIG1        0.0000
      6 C6          2.6120    1.0763    5.3993 C.3     1  LIG1        0.0000
      7 C7          3.8455    1.2798    6.2662 C.ar    1  LIG1        0.0000
      8 C8          4.4172    0.2517    7.0213 C.ar    1  LIG1        0.0000
      9 C9          5.5675    0.5135    7.7592 C.ar    1  LIG1        0.0000
     10 C10         6.1364    1.7828    7.7539 C.ar    1  LIG1        0.0000
     11 C11         5.5261    2.7843    7.0040 C.ar    1  LIG1        0.0000
     12 C12         4.3722    2.5652    6.2510 C.ar    1  LIG1        0.0000
     13 C13         3.6604    3.6371    5.4314 C.3     1  LIG1        0.0000
     14 O14         2.9393    3.1812    4.2828 O.3     1  LIG1        0.0000
     15 H           0.7152    0.7152   -1.0400 H       1  LIG1        0.0000
     16 H           1.1001    2.2548   -0.6551 H       1  LIG1        0.0000
     17 H           2.2548    1.1001   -0.6551 H       1  LIG1        0.0000
     18 H           0.0377    1.1925    1.1925 H       1  LIG1        0.0000
     19 H           1.1925    0.0377    1.1925 H       1  LIG1        0.0000
     20 H           2.8398    1.6851    1.6851 H       1  LIG1        0.0000
     21 H           1.6851    2.8398    1.6851 H       1  LIG1        0.0000
     22 H           0.8542    2.1876    3.6609 H       1  LIG1        0.0000
     23 H           1.2987    0.6320    3.4387 H       1  LIG1        0.0000
     24 H           2.4943    0.1026    5.2041 H       1  LIG1        0.0000
     25 H           1.8038    1.4206    5.8771 H       1  LIG1        0.0000
     26 H           4.0052   -0.6594    7.0309 H       1  LIG1        0.0000
     27 H           5.9883   -0.2166    8.2977 H       1  LIG1        0.0000
     28 H           6.9668    1.9719    8.2779 H       1  LIG1        0.0000
     29 H           5.9315    3.6985    7.0050 H       1  LIG1        0.0000
     30 H           3.0114    4.1010    6.0344 H       1  LIG1        0.0000
     31 H           4.3503    4.2900    5.1188 H       1  LIG1        0.0000
@<TRIPOS>BOND
     1     1     2    1
     2     2     3    1
     3     3     4    1
     4     4     5    1
     5     5     6    1
     6     6     7    1
     7     7     8   ar
     8     8     9   ar
     9     9    10   ar
    10    10    11   ar
    11    11    12   ar
    12    12     7   ar
    13    12    13    1
    14    13    14    1
    15    14     5    1
    16     1    15    1
    17     1    16    1
    18     1    17    1
    19     2    18    1
    20     2    19    1
    21     3    20    1
    22     3    21    1
    23     4    22    1
    24     4    23    1
    25     6    24    1
    26     6    25    1
    27     8    26    1
    28     9    27    1
    29    10    28    1
    30    11    29    1
    31    13    30    1
    32    13    31    1
