@<TRIPOS>MOLECULE
*****
 31 32 0 0 0
SMALL
USER_CHARGES

@<TRIPOS>ATOM
      1 C1          1.2925    1.2925   -0.4626 C.3     1  LIG1        0.0000
      2 C2          1.0000    1.0000    1.0000 C.3     1  LIG1        0.0000
      3 C3          1.8776    1.8776    1.8776 C.3     1  LIG1        0.0000
      4 C4          1.1568    2.1701    3.1834 C.3     1  LIG1        0.0000
      5 N5          1.5773    3.4822    3.6914 N.3     1  LIG1        0.0000
      6 C6          0.8217    4.5101    2.9485 C.3     1  LIG1        0.0000
      7 C7          1.2284    5.8828    3.4665 C.ar    1  LIG1        0.0000
      8 C8          1.4290    6.9927    2.6360 C.ar    1  LIG1        0.0000
      9 C9          1.8223    8.2263    3.1485 C.ar    1  LIG1        0.0000
     10 C10         2.0073    8.3380    4.5241 C.ar    1  LIG1        0.0000
     11 C11         1.7935    7.2227    5.3343 C.ar    1  LIG1        0.0000
     12 C12         1.3951    5.9801    4.8395 C.ar    1  LIG1        0.0000
     13 C13         1.1349    4.7317    5.6844 C.3     1  LIG1        0.0000
     14 O14         1.3811    3.4693    5.0561 O.3     1  LIG1        0.0000
     15 H           0.7152    0.7152   -1.0400 H       1  LIG1        0.0000
     16 H           1.1001    2.2548   -0.6551 H       1  LIG1        0.0000
     17 H           2.2548    1.1001   -0.6551 H       1  LIG1        0.0000
     18 H           0.0377    1.1925    1.1925 H       1  LIG1        0.0000
     19 H           1.1925    0.0377    1.1925 H       1  LIG1        0.0000
     20 H           2.7367    1.4034    2.0700 H       1  LIG1        0.0000
     21 H           2.0700    2.7367    1.4034 H       1  LIG1        0.0000
     22 H           0.1693    2.1747    3.0254 H       1  LIG1        0.0000
     23 H           1.3836    1.4644    3.8547 H       1  LIG1        0.0000
     24 H          -0.1590    4.3743    3.0890 H       1  LIG1        0.0000
     25 H           1.0312    4.4427    1.9730 H       1  LIG1        0.0000
     26 H           1.2862    6.8968    1.6508 H       1  LIG1        0.0000
     27 H           1.9679    9.0105    2.5452 H       1  LIG1        0.0000
     28 H           2.2905    9.2084    4.9269 H       1  LIG1        0.0000
     29 H           1.9327    7.3185    6.3199 H       1  LIG1        0.0000
     30 H           1.7189    4.7864    6.4943 H       1  LIG1        0.0000
     31 H           0.1749    4.7493    5.9639 H       1  LIG1        0.0000
@<TRIPOS>BOND
     1     1     2    1
     2     2     3    1
     3     3     4    1
     4     4     5    1
     5     5     6    1
     6     6     7    1
     7     7     8   ar
     8     8     9   ar
     9     9    10   ar
    10    10    11   ar
    11    11    12   ar
    12    12     7   ar
    13    12    13    1
    14    13    14    1
    15    14     5    1
    16     1    15    1
    17     1    16    1
    18     1    17    1
    19     2    18    1
    20     2    19    1
    21     3    20    1
    22     3    21    1
    23     4    22    1
    24     4    23    1
    25     6    24    1
    26     6    25    1
    27     8    26    1
    28     9    27    1
    29    10    28    1
    30    11    29    1
    31    13    30    1
    32    13    31    1
