@<TRIPOS>MOLECULE
*****
 31 32 0 0 0
SMALL
USER_CHARGES

@<TRIPOS>ATOM
      1 C1          1.2925    1.2925   -0.4626 C.3     1  LIG1        0.0000
      2 C2          1.0000    1.0000    1.0000 C.3     1  LIG1        0.0000
      3 C3          1.8776    1.8776    1.8776 C.3     1  LIG1        0.0000
      4 C4          1.5850    1.5850    3.3402 C.3     1  LIG1        0.0000
      5 N5          2.4338    2.4338    4.1890 N.3     1  LIG1        0.0000
      6 C6          1.8090    3.7614    4.2422 C.3     1  LIG1        0.0000
      7 C7          2.4729    4.6992    5.2408 C.ar    1  LIG1        0.0000
      8 C8          2.2806    6.0787    5.2166 C.ar    1  LIG1        0.0000
      9 C9          2.8803    6.8985    6.1655 C.ar    1  LIG1        0.0000
     10 C10         3.6863    6.3428    7.1544 C.ar    1  LIG1        0.0000
     11 C11         3.8875    4.9663    7.1821 C.ar    1  LIG1        0.0000
     12 C12         3.2911    4.1464    6.2300 C.ar    1  LIG1        0.0000
     13 C13         3.5408    2.6427    6.2380 C.3     1  LIG1        0.0000
     14 O14         2.6185    1.8952    5.4410 O.3     1  LIG1        0.0000
     15 H           0.7152    0.7152   -1.0400 H       1  LIG1        0.0000
     16 H           1.1001    2.2548   -0.6551 H       1  LIG1        0.0000
     17 H           2.2548    1.1001   -0.6551 H       1  LIG1        0.0000
     18 H           0.0377    1.1925    1.1925 H       1  LIG1        0.0000
     19 H           1.1925    0.0377    1.1925 H       1  LIG1        0.0000
     20 H           2.8398    1.6851    1.6851 H       1  LIG1        0.0000
     21 H           1.6851    2.8398    1.6851 H       1  LIG1        0.0000
     22 H           0.6228    1.7775    3.5326 H       1  LIG1        0.0000
     23 H           1.7775    0.6228    3.5326 H       1  LIG1        0.0000
     24 H           0.8493    3.6505    4.5004 H       1  LIG1        0.0000
     25 H           1.8640    4.1748    3.3333 H       1  LIG1        0.0000
     26 H           1.7038    6.4844    4.5076 H       1  LIG1        0.0000
     27 H           2.7327    7.8872    6.1375 H       1  LIG1        0.0000
     28 H           4.1178    6.9286    7.8405 H       1  LIG1        0.0000
     29 H           4.4654    4.5634    7.8918 H       1  LIG1        0.0000
     30 H           4.4636    2.4755    5.8910 H       1  LIG1        0.0000
     31 H           3.4756    2.3183    7.1817 H       1  LIG1        0.0000
@<TRIPOS>BOND
     1     1     2    1
     2     2     3    1
     3     3     4    1
     4     4     5    1
     5     5     6    1
     6     6     7    1
     7     7     8   ar
     8     8     9   ar
     9     9    10   ar
    10    10    11   ar
    11    11    12   ar
    12    12     7   ar
    13    12    13    1
    14    13    14    1
    15    14     5    1
    16     1    15    1
    17     1    16    1
    18     1    17    1
    19     2    18    1
    20     2    19    1
    21     3    20    1
    22     3    21    1
    23     4    22    1
    24     4    23    1
    25     6    24    1
    26     6    25    1
    27     8    26    1
    28     9    27    1
    29    10    28    1
    30    11    29    1
    31    13    30    1
    32    13    31    1
