@<TRIPOS>MOLECULE
*****
 31 32 0 0 0
SMALL
USER_CHARGES

@<TRIPOS>ATOM
      1 C1          1.2925    1.2925   -0.4626 C.3     1  LIG1        0.0000
      2 C2          1.0000    1.0000    1.0000 C.3     1  LIG1        0.0000
      3 C3          1.8776    1.8776    1.8776 C.3     1  LIG1        0.0000
      4 C4          1.5850    1.5850    3.3402 C.3     1  LIG1        0.0000
      5 N5          1.8172    2.7962    4.1375 N.3     1  LIG1        0.0000
      6 C6          1.0850    2.6386    5.4098 C.3     1  LIG1        0.0000
      7 C7          1.3208    3.8767    6.2639 C.ar    1  LIG1        0.0000
      8 C8          0.3187    4.4908    7.0259 C.ar    1  LIG1        0.0000
      9 C9          0.5714    5.6359    7.7770 C.ar    1  LIG1        0.0000
     10 C10         1.8608    6.1613    7.7612 C.ar    1  LIG1        0.0000
     11 C11         2.8462    5.5291    7.0028 C.ar    1  LIG1        0.0000
     12 C12         2.6130    4.3789    6.2476 C.ar    1  LIG1        0.0000
     13 C13         3.6595    3.6407    5.4110 C.3     1  LIG1        0.0000
     14 O14         3.1826    2.9497    4.2516 O.3     1  LIG1        0.0000
     15 H           0.7152    0.7152   -1.0400 H       1  LIG1        0.0000
     16 H           1.1001    2.2548   -0.6551 H       1  LIG1        0.0000
     17 H           2.2548    1.1001   -0.6551 H       1  LIG1        0.0000
     18 H           0.0377    1.1925    1.1925 H       1  LIG1        0.0000
     19 H           1.1925    0.0377    1.1925 H       1  LIG1        0.0000
     20 H           2.8398    1.6851    1.6851 H       1  LIG1        0.0000
     21 H           1.6851    2.8398    1.6851 H       1  LIG1        0.0000
     22 H           0.6320    1.2987    3.4387 H       1  LIG1        0.0000
     23 H           2.1876    0.8542    3.6609 H       1  LIG1        0.0000
     24 H           1.4184    1.8285    5.8920 H       1  LIG1        0.0000
     25 H           0.1073    2.5380    5.2254 H       1  LIG1        0.0000
     26 H          -0.6006    4.0972    7.0307 H       1  LIG1        0.0000
     27 H          -0.1534    6.0690    8.3129 H       1  LIG1        0.0000
     28 H           2.0781    6.9831    8.2879 H       1  LIG1        0.0000
     29 H           3.7667    5.9199    7.0001 H       1  LIG1        0.0000
     30 H           4.3343    4.3132    5.1070 H       1  LIG1        0.0000
     31 H           4.1026    2.9683    6.0039 H       1  LIG1        0.0000
@<TRIPOS>BOND
     1     1     2    1
     2     2     3    1
     3     3     4    1
     4     4     5    1
     5     5     6    1
     6     6     7    1
     7     7     8   ar
     8     8     9   ar
     9     9    10   ar
    10    10    11   ar
    11    11    12   ar
    12    12     7   ar
    13    12    13    1
    14    13    14    1
    15    14     5    1
    16     1    15    1
    17     1    16    1
    18     1    17    1
    19     2    18    1
    20     2    19    1
    21     3    20    1
    22     3    21    1
    23     4    22    1
    24     4    23    1
    25     6    24    1
    26     6    25    1
    27     8    26    1
    28     9    27    1
    29    10    28    1
    30    11    29    1
    31    13    30    1
    32    13    31    1
