@<TRIPOS>MOLECULE
*****
 31 32 0 0 0
SMALL
USER_CHARGES

@<TRIPOS>ATOM
      1 C1          1.2925    1.2925   -0.4626 C.3     1  LIG1        0.0000
      2 C2          1.0000    1.0000    1.0000 C.3     1  LIG1        0.0000
      3 C3          1.8776    1.8776    1.8776 C.3     1  LIG1        0.0000
      4 C4          1.5850    1.5850    3.3402 C.3     1  LIG1        0.0000
      5 N5          2.4338    2.4338    4.1890 N.3     1  LIG1        0.0000
      6 C6          1.8090    2.4871    5.5165 C.3     1  LIG1        0.0000
      7 C7          2.6751    3.1759    6.5619 C.ar    1  LIG1        0.0000
      8 C8          2.1640    3.6402    7.7718 C.ar    1  LIG1        0.0000
      9 C9          2.9939    4.2364    8.7141 C.ar    1  LIG1        0.0000
     10 C10         4.3534    4.3772    8.4529 C.ar    1  LIG1        0.0000
     11 C11         4.8706    3.9208    7.2445 C.ar    1  LIG1        0.0000
     12 C12         4.0395    3.3282    6.2998 C.ar    1  LIG1        0.0000
     13 C13         4.5992    2.8613    4.9610 C.3     1  LIG1        0.0000
     14 O14         3.7314    1.9808    4.2425 O.3     1  LIG1        0.0000
     15 H           0.7152    0.7152   -1.0400 H       1  LIG1        0.0000
     16 H           1.1001    2.2548   -0.6551 H       1  LIG1        0.0000
     17 H           2.2548    1.1001   -0.6551 H       1  LIG1        0.0000
     18 H           0.0377    1.1925    1.1925 H       1  LIG1        0.0000
     19 H           1.1925    0.0377    1.1925 H       1  LIG1        0.0000
     20 H           2.8398    1.6851    1.6851 H       1  LIG1        0.0000
     21 H           1.6851    2.8398    1.6851 H       1  LIG1        0.0000
     22 H           0.6228    1.7775    3.5326 H       1  LIG1        0.0000
     23 H           1.7775    0.6228    3.5326 H       1  LIG1        0.0000
     24 H           1.6285    1.5515    5.8202 H       1  LIG1        0.0000
     25 H           0.9454    2.9856    5.4412 H       1  LIG1        0.0000
     26 H           1.1876    3.5433    7.9648 H       1  LIG1        0.0000
     27 H           2.6141    4.5640    9.5793 H       1  LIG1        0.0000
     28 H           4.9545    4.8033    9.1289 H       1  LIG1        0.0000
     29 H           5.8473    4.0196    7.0539 H       1  LIG1        0.0000
     30 H           4.7698    3.6668    4.3935 H       1  LIG1        0.0000
     31 H           5.4615    2.3840    5.1301 H       1  LIG1        0.0000
@<TRIPOS>BOND
     1     1     2    1
     2     2     3    1
     3     3     4    1
     4     4     5    1
     5     5     6    1
     6     6     7    1
     7     7     8   ar
     8     8     9   ar
     9     9    10   ar
    10    10    11   ar
    11    11    12   ar
    12    12     7   ar
    13    12    13    1
    14    13    14    1
    15    14     5    1
    16     1    15    1
    17     1    16    1
    18     1    17    1
    19     2    18    1
    20     2    19    1
    21     3    20    1
    22     3    21    1
    23     4    22    1
    24     4    23    1
    25     6    24    1
    26     6    25    1
    27     8    26    1
    28     9    27    1
    29    10    28    1
    30    11    29    1
    31    13    30    1
    32    13    31    1
