@<TRIPOS>MOLECULE
*****
 31 32 0 0 0
SMALL
USER_CHARGES

@<TRIPOS>ATOM
      1 C1          1.2925    1.2925   -0.4626 C.3     1  LIG1        0.0000
      2 C2          1.0000    1.0000    1.0000 C.3     1  LIG1        0.0000
      3 C3          1.8776    1.8776    1.8776 C.3     1  LIG1        0.0000
      4 C4          1.5850    1.5850    3.3402 C.3     1  LIG1        0.0000
      5 N5          1.8172    2.7962    4.1375 N.3     1  LIG1        0.0000
      6 C6          3.2716    2.9072    4.3653 C.3     1  LIG1        0.0000
      7 C7          3.5424    4.1651    5.1791 C.ar    1  LIG1        0.0000
      8 C8          4.4796    4.2250    6.2183 C.ar    1  LIG1        0.0000
      9 C9          4.6814    5.3907    6.9530 C.ar    1  LIG1        0.0000
     10 C10         3.9274    6.5141    6.6238 C.ar    1  LIG1        0.0000
     11 C11         3.0059    6.4356    5.5793 C.ar    1  LIG1        0.0000
     12 C12         2.7931    5.2780    4.8294 C.ar    1  LIG1        0.0000
     13 C13         1.8066    5.1432    3.6682 C.3     1  LIG1        0.0000
     14 O14         1.2396    3.8462    3.4556 O.3     1  LIG1        0.0000
     15 H           0.7152    0.7152   -1.0400 H       1  LIG1        0.0000
     16 H           1.1001    2.2548   -0.6551 H       1  LIG1        0.0000
     17 H           2.2548    1.1001   -0.6551 H       1  LIG1        0.0000
     18 H           0.0377    1.1925    1.1925 H       1  LIG1        0.0000
     19 H           1.1925    0.0377    1.1925 H       1  LIG1        0.0000
     20 H           2.8398    1.6851    1.6851 H       1  LIG1        0.0000
     21 H           1.6851    2.8398    1.6851 H       1  LIG1        0.0000
     22 H           0.6320    1.2987    3.4387 H       1  LIG1        0.0000
     23 H           2.1876    0.8542    3.6609 H       1  LIG1        0.0000
     24 H           3.7464    2.9655    3.4872 H       1  LIG1        0.0000
     25 H           3.5959    2.1052    4.8670 H       1  LIG1        0.0000
     26 H           5.0169    3.4107    6.4381 H       1  LIG1        0.0000
     27 H           5.3494    5.4201    7.6965 H       1  LIG1        0.0000
     28 H           4.0452    7.3680    7.1306 H       1  LIG1        0.0000
     29 H           2.4706    7.2503    5.3566 H       1  LIG1        0.0000
     30 H           1.0536    5.7798    3.8345 H       1  LIG1        0.0000
     31 H           2.2861    5.4055    2.8308 H       1  LIG1        0.0000
@<TRIPOS>BOND
     1     1     2    1
     2     2     3    1
     3     3     4    1
     4     4     5    1
     5     5     6    1
     6     6     7    1
     7     7     8   ar
     8     8     9   ar
     9     9    10   ar
    10    10    11   ar
    11    11    12   ar
    12    12     7   ar
    13    12    13    1
    14    13    14    1
    15    14     5    1
    16     1    15    1
    17     1    16    1
    18     1    17    1
    19     2    18    1
    20     2    19    1
    21     3    20    1
    22     3    21    1
    23     4    22    1
    24     4    23    1
    25     6    24    1
    26     6    25    1
    27     8    26    1
    28     9    27    1
    29    10    28    1
    30    11    29    1
    31    13    30    1
    32    13    31    1
