@<TRIPOS>MOLECULE

  65   68
SMALL
USER_CHARGES
@<TRIPOS>ATOM
   1 C1          -2.4807     2.1724     5.1718 C.3          1    LIG   0.0000
   2 C2          -2.9249     1.7413     3.7835 C.3          1    LIG   0.0000
   3 C3          -1.8649     2.1345     2.7675 C.3          1    LIG   0.0000
   4 S4          -2.3939     1.6213     1.1144 S.o2         1    LIG   0.0000
   5 O5          -3.6374     2.2687     0.7857 O.2          1    LIG   0.0000
   6 O6          -2.5753     0.1930     1.0903 O.2          1    LIG   0.0000
   7 N7          -1.2572     2.0430     0.0248 N.pl3        1    LIG   0.0000
   8 C8          -0.0235     1.3809     0.0083 C.ar         1    LIG   0.0000
   9 C9          -0.0122    -0.0101    -0.0015 C.ar         1    LIG   0.0000
  10 C10          1.2069    -0.6799    -0.0180 C.ar         1    LIG   0.0000
  11 C11          2.4089     0.0202    -0.0247 C.ar         1    LIG   0.0000
  12 C12          2.3838     1.4109    -0.0148 C.ar         1    LIG   0.0000
  13 N13          3.5885     2.1243    -0.0215 N.pl3        1    LIG   0.0000
  14 C14          4.8695     1.4034    -0.0390 C.3          1    LIG   0.0000
  15 C15          6.0139     2.4038    -0.0431 C.2          1    LIG   0.0000
  16 O16          5.7817     3.5811    -0.0326 O.2          1    LIG   0.0000
  17 N17          7.3381     1.9519    -0.0591 N.am         1    LIG   0.0000
  18 N18          8.4284     2.7372    -0.0641 N.2          1    LIG   0.0000
  19 C19          9.4373     2.1102     0.3548 C.2          1    LIG   0.0000
  20 C20         10.7778     2.6510     0.4671 C.ar         1    LIG   0.0000
  21 C21         11.0171     3.9690     0.0923 C.ar         1    LIG   0.0000
  22 C22         12.3049     4.4833     0.2016 C.ar         1    LIG   0.0000
  23 C23         13.3355     3.6814     0.6802 C.ar         1    LIG   0.0000
  24 C24         14.7392     4.2511     0.7961 C.3          1    LIG   0.0000
  25 C25         13.0870     2.3643     1.0540 C.ar         1    LIG   0.0000
  26 C26         11.8025     1.8420     0.9479 C.ar         1    LIG   0.0000
  27 C27          9.0363     0.7040     0.7327 C.3          1    LIG   0.0000
  28 C28          7.7594     0.5531    -0.0633 C.3          1    LIG   0.0000
  29 C29          6.7816    -0.3398     0.6813 C.2          1    LIG   0.0000
  30 C30          6.2551    -1.4960     0.1904 C.2          1    LIG   0.0000
  31 C31          5.4076    -1.9750     1.2152 C.2          1    LIG   0.0000
  32 C32          5.4849    -1.0766     2.2362 C.2          1    LIG   0.0000
  33 O33          6.3136    -0.1182     1.8891 O.2          1    LIG   0.0000
  34 C34          1.1717     2.0931     0.0017 C.ar         1    LIG   0.0000
  35 C35          1.1507     3.6131     0.0128 C.3          1    LIG   0.0000
  36 H            7.9357     0.2205    -0.9898 H            1    LIG   0.0000
  37 H           -3.1781     1.9137     5.8402 H            1    LIG   0.0000
  38 H           -1.6171     1.7227     5.4000 H            1    LIG   0.0000
  39 H           -2.3547     3.1642     5.1884 H            1    LIG   0.0000
  40 H           -3.0509     0.7494     3.7668 H            1    LIG   0.0000
  41 H           -3.7885     2.1909     3.5552 H            1    LIG   0.0000
  42 H           -1.7389     3.1264     2.7842 H            1    LIG   0.0000
  43 H           -1.0014     1.6849     2.9957 H            1    LIG   0.0000
  44 H           -1.4409     2.7745    -0.6317 H            1    LIG   0.0000
  45 H           -0.8707    -0.5228     0.0034 H            1    LIG   0.0000
  46 H            1.2194    -1.6798    -0.0251 H            1    LIG   0.0000
  47 H            3.2803    -0.4703    -0.0365 H            1    LIG   0.0000
  48 H            3.5776     3.1242    -0.0144 H            1    LIG   0.0000
  49 H            4.9209     0.8348    -0.8600 H            1    LIG   0.0000
  50 H            4.9367     0.8234     0.7729 H            1    LIG   0.0000
  51 H           10.2719     4.5402    -0.2518 H            1    LIG   0.0000
  52 H           12.4897     5.4295    -0.0639 H            1    LIG   0.0000
  53 H           15.3552     3.5493     1.1539 H            1    LIG   0.0000
  54 H           15.0556     4.5438    -0.1063 H            1    LIG   0.0000
  55 H           14.7306     5.0351     1.4168 H            1    LIG   0.0000
  56 H           13.8320     1.7933     1.3988 H            1    LIG   0.0000
  57 H           11.6176     0.8960     1.2141 H            1    LIG   0.0000
  58 H            8.8701     0.6197     1.7152 H            1    LIG   0.0000
  59 H            9.7261     0.0363     0.4528 H            1    LIG   0.0000
  60 H            6.4299    -1.9147    -0.7007 H            1    LIG   0.0000
  61 H            4.8584    -2.8104     1.1947 H            1    LIG   0.0000
  62 H            4.9930    -1.1366     3.1048 H            1    LIG   0.0000
  63 H            2.0888     3.9595     0.0060 H            1    LIG   0.0000
  64 H            0.6668     3.9458    -0.7967 H            1    LIG   0.0000
  65 H            0.6828     3.9341     0.8362 H            1    LIG   0.0000
@<TRIPOS>BOND
   1        1        2 1
   2        2        3 1
   3        3        4 1
   4        4        5 2
   5        4        6 2
   6        4        7 1
   7        7        8 1
   8        8        9 ar
   9        9       10 ar
  10       10       11 ar
  11       11       12 ar
  12       12       13 1
  13       13       14 1
  14       14       15 1
  15       15       16 2
  16       15       17 am
  17       17       18 1
  18       18       19 2
  19       19       20 1
  20       20       21 ar
  21       21       22 ar
  22       22       23 ar
  23       23       24 1
  24       23       25 ar
  25       25       26 ar
  26       26       20 ar
  27       19       27 1
  28       27       28 1
  29       28       17 1
  30       28       29 1
  31       29       30 2
  32       30       31 1
  33       31       32 2
  34       32       33 1
  35       33       29 1
  36       12       34 ar
  37       34        8 ar
  38       34       35 1
  39       28       36 1
  40        1       37 1
  41        1       38 1
  42        1       39 1
  43        2       40 1
  44        2       41 1
  45        3       42 1
  46        3       43 1
  47        7       44 1
  48        9       45 1
  49       10       46 1
  50       11       47 1
  51       13       48 1
  52       14       49 1
  53       14       50 1
  54       21       51 1
  55       22       52 1
  56       24       53 1
  57       24       54 1
  58       24       55 1
  59       25       56 1
  60       26       57 1
  61       27       58 1
  62       27       59 1
  63       30       60 1
  64       31       61 1
  65       32       62 1
  66       35       63 1
  67       35       64 1
  68       35       65 1

@<TRIPOS>MOLECULE

  65   68
SMALL
USER_CHARGES
@<TRIPOS>ATOM
   1 C1          -2.5801     2.2439    -5.0951 C.3          1    LIG   0.0000
   2 C2          -2.9974     1.7935    -3.7046 C.3          1    LIG   0.0000
   3 C3          -1.9179     2.1727    -2.7040 C.3          1    LIG   0.0000
   4 S4          -2.4148     1.6364    -1.0482 S.o2         1    LIG   0.0000
   5 O5          -2.5960     0.2078    -1.0406 O.2          1    LIG   0.0000
   6 O6          -3.6517     2.2790    -0.6865 O.2          1    LIG   0.0000
   7 N7          -1.2572     2.0430     0.0248 N.pl3        1    LIG   0.0000
   8 C8          -0.0235     1.3809     0.0083 C.ar         1    LIG   0.0000
   9 C9          -0.0122    -0.0101    -0.0015 C.ar         1    LIG   0.0000
  10 C10          1.2069    -0.6799    -0.0180 C.ar         1    LIG   0.0000
  11 C11          2.4089     0.0202    -0.0247 C.ar         1    LIG   0.0000
  12 C12          2.3838     1.4109    -0.0148 C.ar         1    LIG   0.0000
  13 N13          3.5885     2.1243    -0.0215 N.pl3        1    LIG   0.0000
  14 C14          4.8695     1.4034    -0.0390 C.3          1    LIG   0.0000
  15 C15          6.0139     2.4038    -0.0431 C.2          1    LIG   0.0000
  16 O16          5.7817     3.5811    -0.0326 O.2          1    LIG   0.0000
  17 N17          7.3381     1.9519    -0.0591 N.am         1    LIG   0.0000
  18 N18          8.4284     2.7372    -0.0641 N.2          1    LIG   0.0000
  19 C19          9.4373     2.1102     0.3548 C.2          1    LIG   0.0000
  20 C20         10.7778     2.6510     0.4671 C.ar         1    LIG   0.0000
  21 C21         11.0171     3.9690     0.0923 C.ar         1    LIG   0.0000
  22 C22         12.3049     4.4833     0.2016 C.ar         1    LIG   0.0000
  23 C23         13.3355     3.6814     0.6802 C.ar         1    LIG   0.0000
  24 C24         14.7392     4.2511     0.7961 C.3          1    LIG   0.0000
  25 C25         13.0870     2.3643     1.0540 C.ar         1    LIG   0.0000
  26 C26         11.8025     1.8420     0.9479 C.ar         1    LIG   0.0000
  27 C27          9.0363     0.7040     0.7327 C.3          1    LIG   0.0000
  28 C28          7.7594     0.5531    -0.0633 C.3          1    LIG   0.0000
  29 C29          6.7816    -0.3398     0.6813 C.2          1    LIG   0.0000
  30 C30          6.2551    -1.4960     0.1904 C.2          1    LIG   0.0000
  31 C31          5.4076    -1.9750     1.2152 C.2          1    LIG   0.0000
  32 C32          5.4849    -1.0766     2.2362 C.2          1    LIG   0.0000
  33 O33          6.3136    -0.1182     1.8891 O.2          1    LIG   0.0000
  34 C34          1.1717     2.0931     0.0017 C.ar         1    LIG   0.0000
  35 C35          1.1507     3.6131     0.0128 C.3          1    LIG   0.0000
  36 H            7.9357     0.2205    -0.9898 H            1    LIG   0.0000
  37 H           -3.2903     1.9945    -5.7534 H            1    LIG   0.0000
  38 H           -2.4543     3.2360    -5.1004 H            1    LIG   0.0000
  39 H           -1.7212     1.7977    -5.3463 H            1    LIG   0.0000
  40 H           -3.8564     2.2398    -3.4534 H            1    LIG   0.0000
  41 H           -3.1232     0.8015    -3.6993 H            1    LIG   0.0000
  42 H           -1.0590     1.7264    -2.9551 H            1    LIG   0.0000
  43 H           -1.7921     3.1647    -2.7093 H            1    LIG   0.0000
  44 H           -1.4281     2.7652     0.6950 H            1    LIG   0.0000
  45 H           -0.8707    -0.5228     0.0034 H            1    LIG   0.0000
  46 H            1.2194    -1.6798    -0.0251 H            1    LIG   0.0000
  47 H            3.2803    -0.4703    -0.0365 H            1    LIG   0.0000
  48 H            3.5776     3.1242    -0.0144 H            1    LIG   0.0000
  49 H            4.9209     0.8348    -0.8600 H            1    LIG   0.0000
  50 H            4.9367     0.8234     0.7729 H            1    LIG   0.0000
  51 H           10.2719     4.5402    -0.2518 H            1    LIG   0.0000
  52 H           12.4897     5.4295    -0.0639 H            1    LIG   0.0000
  53 H           15.3552     3.5493     1.1539 H            1    LIG   0.0000
  54 H           15.0556     4.5438    -0.1063 H            1    LIG   0.0000
  55 H           14.7306     5.0351     1.4168 H            1    LIG   0.0000
  56 H           13.8320     1.7933     1.3988 H            1    LIG   0.0000
  57 H           11.6176     0.8960     1.2141 H            1    LIG   0.0000
  58 H            8.8701     0.6197     1.7152 H            1    LIG   0.0000
  59 H            9.7261     0.0363     0.4528 H            1    LIG   0.0000
  60 H            6.4299    -1.9147    -0.7007 H            1    LIG   0.0000
  61 H            4.8584    -2.8104     1.1947 H            1    LIG   0.0000
  62 H            4.9930    -1.1366     3.1048 H            1    LIG   0.0000
  63 H            2.0888     3.9595     0.0060 H            1    LIG   0.0000
  64 H            0.6668     3.9458    -0.7967 H            1    LIG   0.0000
  65 H            0.6828     3.9341     0.8362 H            1    LIG   0.0000
@<TRIPOS>BOND
   1        1        2 1
   2        2        3 1
   3        3        4 1
   4        4        5 2
   5        4        6 2
   6        4        7 1
   7        7        8 1
   8        8        9 ar
   9        9       10 ar
  10       10       11 ar
  11       11       12 ar
  12       12       13 1
  13       13       14 1
  14       14       15 1
  15       15       16 2
  16       15       17 am
  17       17       18 1
  18       18       19 2
  19       19       20 1
  20       20       21 ar
  21       21       22 ar
  22       22       23 ar
  23       23       24 1
  24       23       25 ar
  25       25       26 ar
  26       26       20 ar
  27       19       27 1
  28       27       28 1
  29       28       17 1
  30       28       29 1
  31       29       30 2
  32       30       31 1
  33       31       32 2
  34       32       33 1
  35       33       29 1
  36       12       34 ar
  37       34        8 ar
  38       34       35 1
  39       28       36 1
  40        1       37 1
  41        1       38 1
  42        1       39 1
  43        2       40 1
  44        2       41 1
  45        3       42 1
  46        3       43 1
  47        7       44 1
  48        9       45 1
  49       10       46 1
  50       11       47 1
  51       13       48 1
  52       14       49 1
  53       14       50 1
  54       21       51 1
  55       22       52 1
  56       24       53 1
  57       24       54 1
  58       24       55 1
  59       25       56 1
  60       26       57 1
  61       27       58 1
  62       27       59 1
  63       30       60 1
  64       31       61 1
  65       32       62 1
  66       35       63 1
  67       35       64 1
  68       35       65 1

@<TRIPOS>MOLECULE

  65   68
SMALL
USER_CHARGES
@<TRIPOS>ATOM
   1 C1          -2.4807     2.1724     5.1718 C.3          1    LIG   0.0000
   2 C2          -2.9249     1.7413     3.7835 C.3          1    LIG   0.0000
   3 C3          -1.8649     2.1345     2.7675 C.3          1    LIG   0.0000
   4 S4          -2.3939     1.6213     1.1144 S.o2         1    LIG   0.0000
   5 O5          -3.6374     2.2687     0.7857 O.2          1    LIG   0.0000
   6 O6          -2.5753     0.1930     1.0903 O.2          1    LIG   0.0000
   7 N7          -1.2572     2.0430     0.0248 N.pl3        1    LIG   0.0000
   8 C8          -0.0235     1.3809     0.0083 C.ar         1    LIG   0.0000
   9 C9          -0.0122    -0.0101    -0.0015 C.ar         1    LIG   0.0000
  10 C10          1.2069    -0.6799    -0.0180 C.ar         1    LIG   0.0000
  11 C11          2.4089     0.0202    -0.0247 C.ar         1    LIG   0.0000
  12 C12          2.3838     1.4109    -0.0148 C.ar         1    LIG   0.0000
  13 N13          3.5885     2.1243    -0.0215 N.pl3        1    LIG   0.0000
  14 C14          4.8695     1.4034    -0.0390 C.3          1    LIG   0.0000
  15 C15          5.2972     1.1649    -1.4780 C.2          1    LIG   0.0000
  16 O16          4.6088     1.5538    -2.3807 O.2          1    LIG   0.0000
  17 N17          6.4935     0.4921    -1.7500 N.am         1    LIG   0.0000
  18 N18          6.9740     0.2235    -2.9756 N.2          1    LIG   0.0000
  19 C19          8.2167     0.0210    -2.9381 C.2          1    LIG   0.0000
  20 C20          9.0510    -0.3073    -4.0774 C.ar         1    LIG   0.0000
  21 C21          8.4739    -0.4186    -5.3381 C.ar         1    LIG   0.0000
  22 C22          9.2784    -0.7340    -6.4282 C.ar         1    LIG   0.0000
  23 C23         10.6429    -0.9352    -6.2501 C.ar         1    LIG   0.0000
  24 C24         11.5142    -1.2798    -7.4461 C.3          1    LIG   0.0000
  25 C25         11.2121    -0.8209    -4.9855 C.ar         1    LIG   0.0000
  26 C26         10.4153    -0.5059    -3.8902 C.ar         1    LIG   0.0000
  27 C27          8.7112     0.1809    -1.5200 C.3          1    LIG   0.0000
  28 C28          7.4258    -0.0231    -0.7501 C.3          1    LIG   0.0000
  29 C29          7.4329     0.8216     0.5126 C.2          1    LIG   0.0000
  30 C30          7.3053     0.3317     1.7769 C.2          1    LIG   0.0000
  31 C31          7.3641     1.4676     2.6160 C.2          1    LIG   0.0000
  32 C32          7.5183     2.5471     1.7998 C.2          1    LIG   0.0000
  33 O33          7.5600     2.1289     0.5552 O.2          1    LIG   0.0000
  34 C34          1.1717     2.0931     0.0017 C.ar         1    LIG   0.0000
  35 C35          1.1507     3.6131     0.0128 C.3          1    LIG   0.0000
  36 H            7.2610    -0.9891    -0.5506 H            1    LIG   0.0000
  37 H           -3.1781     1.9137     5.8402 H            1    LIG   0.0000
  38 H           -1.6171     1.7227     5.4000 H            1    LIG   0.0000
  39 H           -2.3547     3.1642     5.1884 H            1    LIG   0.0000
  40 H           -3.0509     0.7494     3.7668 H            1    LIG   0.0000
  41 H           -3.7885     2.1909     3.5552 H            1    LIG   0.0000
  42 H           -1.7389     3.1264     2.7842 H            1    LIG   0.0000
  43 H           -1.0014     1.6849     2.9957 H            1    LIG   0.0000
  44 H           -1.4409     2.7745    -0.6317 H            1    LIG   0.0000
  45 H           -0.8707    -0.5228     0.0034 H            1    LIG   0.0000
  46 H            1.2194    -1.6798    -0.0251 H            1    LIG   0.0000
  47 H            3.2803    -0.4703    -0.0365 H            1    LIG   0.0000
  48 H            3.5776     3.1242    -0.0144 H            1    LIG   0.0000
  49 H            4.7641     0.5251     0.4273 H            1    LIG   0.0000
  50 H            5.5650     1.9482     0.4295 H            1    LIG   0.0000
  51 H            7.4920    -0.2734    -5.4595 H            1    LIG   0.0000
  52 H            8.8756    -0.8162    -7.3398 H            1    LIG   0.0000
  53 H           12.4620    -1.3906    -7.1471 H            1    LIG   0.0000
  54 H           11.1928    -2.1324    -7.8581 H            1    LIG   0.0000
  55 H           11.4613    -0.5431    -8.1203 H            1    LIG   0.0000
  56 H           12.1942    -0.9652    -4.8644 H            1    LIG   0.0000
  57 H           10.8182    -0.4230    -2.9787 H            1    LIG   0.0000
  58 H            9.0937     1.0916    -1.3637 H            1    LIG   0.0000
  59 H            9.3939    -0.5118    -1.2875 H            1    LIG   0.0000
  60 H            7.1942    -0.6234     2.0517 H            1    LIG   0.0000
  61 H            7.3041     1.4768     3.6142 H            1    LIG   0.0000
  62 H            7.5881     3.4990     2.0982 H            1    LIG   0.0000
  63 H            2.0888     3.9595     0.0060 H            1    LIG   0.0000
  64 H            0.6668     3.9458    -0.7967 H            1    LIG   0.0000
  65 H            0.6828     3.9341     0.8362 H            1    LIG   0.0000
@<TRIPOS>BOND
   1        1        2 1
   2        2        3 1
   3        3        4 1
   4        4        5 2
   5        4        6 2
   6        4        7 1
   7        7        8 1
   8        8        9 ar
   9        9       10 ar
  10       10       11 ar
  11       11       12 ar
  12       12       13 1
  13       13       14 1
  14       14       15 1
  15       15       16 2
  16       15       17 am
  17       17       18 1
  18       18       19 2
  19       19       20 1
  20       20       21 ar
  21       21       22 ar
  22       22       23 ar
  23       23       24 1
  24       23       25 ar
  25       25       26 ar
  26       26       20 ar
  27       19       27 1
  28       27       28 1
  29       28       17 1
  30       28       29 1
  31       29       30 2
  32       30       31 1
  33       31       32 2
  34       32       33 1
  35       33       29 1
  36       12       34 ar
  37       34        8 ar
  38       34       35 1
  39       28       36 1
  40        1       37 1
  41        1       38 1
  42        1       39 1
  43        2       40 1
  44        2       41 1
  45        3       42 1
  46        3       43 1
  47        7       44 1
  48        9       45 1
  49       10       46 1
  50       11       47 1
  51       13       48 1
  52       14       49 1
  53       14       50 1
  54       21       51 1
  55       22       52 1
  56       24       53 1
  57       24       54 1
  58       24       55 1
  59       25       56 1
  60       26       57 1
  61       27       58 1
  62       27       59 1
  63       30       60 1
  64       31       61 1
  65       32       62 1
  66       35       63 1
  67       35       64 1
  68       35       65 1

@<TRIPOS>MOLECULE

  65   68
SMALL
USER_CHARGES
@<TRIPOS>ATOM
   1 C1          -2.5801     2.2439    -5.0951 C.3          1    LIG   0.0000
   2 C2          -2.9974     1.7935    -3.7046 C.3          1    LIG   0.0000
   3 C3          -1.9179     2.1727    -2.7040 C.3          1    LIG   0.0000
   4 S4          -2.4148     1.6364    -1.0482 S.o2         1    LIG   0.0000
   5 O5          -2.5960     0.2078    -1.0406 O.2          1    LIG   0.0000
   6 O6          -3.6517     2.2790    -0.6865 O.2          1    LIG   0.0000
   7 N7          -1.2572     2.0430     0.0248 N.pl3        1    LIG   0.0000
   8 C8          -0.0235     1.3809     0.0083 C.ar         1    LIG   0.0000
   9 C9          -0.0122    -0.0101    -0.0015 C.ar         1    LIG   0.0000
  10 C10          1.2069    -0.6799    -0.0180 C.ar         1    LIG   0.0000
  11 C11          2.4089     0.0202    -0.0247 C.ar         1    LIG   0.0000
  12 C12          2.3838     1.4109    -0.0148 C.ar         1    LIG   0.0000
  13 N13          3.5885     2.1243    -0.0215 N.pl3        1    LIG   0.0000
  14 C14          4.8695     1.4034    -0.0390 C.3          1    LIG   0.0000
  15 C15          5.2972     1.1649    -1.4780 C.2          1    LIG   0.0000
  16 O16          4.6088     1.5538    -2.3807 O.2          1    LIG   0.0000
  17 N17          6.4935     0.4921    -1.7500 N.am         1    LIG   0.0000
  18 N18          6.9740     0.2235    -2.9756 N.2          1    LIG   0.0000
  19 C19          8.2167     0.0210    -2.9381 C.2          1    LIG   0.0000
  20 C20          9.0510    -0.3073    -4.0774 C.ar         1    LIG   0.0000
  21 C21          8.4739    -0.4186    -5.3381 C.ar         1    LIG   0.0000
  22 C22          9.2784    -0.7340    -6.4282 C.ar         1    LIG   0.0000
  23 C23         10.6429    -0.9352    -6.2501 C.ar         1    LIG   0.0000
  24 C24         11.5142    -1.2798    -7.4461 C.3          1    LIG   0.0000
  25 C25         11.2121    -0.8209    -4.9855 C.ar         1    LIG   0.0000
  26 C26         10.4153    -0.5059    -3.8902 C.ar         1    LIG   0.0000
  27 C27          8.7112     0.1809    -1.5200 C.3          1    LIG   0.0000
  28 C28          7.4258    -0.0231    -0.7501 C.3          1    LIG   0.0000
  29 C29          7.4329     0.8216     0.5126 C.2          1    LIG   0.0000
  30 C30          7.3053     0.3317     1.7769 C.2          1    LIG   0.0000
  31 C31          7.3641     1.4676     2.6160 C.2          1    LIG   0.0000
  32 C32          7.5183     2.5471     1.7998 C.2          1    LIG   0.0000
  33 O33          7.5600     2.1289     0.5552 O.2          1    LIG   0.0000
  34 C34          1.1717     2.0931     0.0017 C.ar         1    LIG   0.0000
  35 C35          1.1507     3.6131     0.0128 C.3          1    LIG   0.0000
  36 H            7.2610    -0.9891    -0.5506 H            1    LIG   0.0000
  37 H           -3.2903     1.9945    -5.7534 H            1    LIG   0.0000
  38 H           -2.4543     3.2360    -5.1004 H            1    LIG   0.0000
  39 H           -1.7212     1.7977    -5.3463 H            1    LIG   0.0000
  40 H           -3.8564     2.2398    -3.4534 H            1    LIG   0.0000
  41 H           -3.1232     0.8015    -3.6993 H            1    LIG   0.0000
  42 H           -1.0590     1.7264    -2.9551 H            1    LIG   0.0000
  43 H           -1.7921     3.1647    -2.7093 H            1    LIG   0.0000
  44 H           -1.4281     2.7652     0.6950 H            1    LIG   0.0000
  45 H           -0.8707    -0.5228     0.0034 H            1    LIG   0.0000
  46 H            1.2194    -1.6798    -0.0251 H            1    LIG   0.0000
  47 H            3.2803    -0.4703    -0.0365 H            1    LIG   0.0000
  48 H            3.5776     3.1242    -0.0144 H            1    LIG   0.0000
  49 H            4.7641     0.5251     0.4273 H            1    LIG   0.0000
  50 H            5.5650     1.9482     0.4295 H            1    LIG   0.0000
  51 H            7.4920    -0.2734    -5.4595 H            1    LIG   0.0000
  52 H            8.8756    -0.8162    -7.3398 H            1    LIG   0.0000
  53 H           12.4620    -1.3906    -7.1471 H            1    LIG   0.0000
  54 H           11.1928    -2.1324    -7.8581 H            1    LIG   0.0000
  55 H           11.4613    -0.5431    -8.1203 H            1    LIG   0.0000
  56 H           12.1942    -0.9652    -4.8644 H            1    LIG   0.0000
  57 H           10.8182    -0.4230    -2.9787 H            1    LIG   0.0000
  58 H            9.0937     1.0916    -1.3637 H            1    LIG   0.0000
  59 H            9.3939    -0.5118    -1.2875 H            1    LIG   0.0000
  60 H            7.1942    -0.6234     2.0517 H            1    LIG   0.0000
  61 H            7.3041     1.4768     3.6142 H            1    LIG   0.0000
  62 H            7.5881     3.4990     2.0982 H            1    LIG   0.0000
  63 H            2.0888     3.9595     0.0060 H            1    LIG   0.0000
  64 H            0.6668     3.9458    -0.7967 H            1    LIG   0.0000
  65 H            0.6828     3.9341     0.8362 H            1    LIG   0.0000
@<TRIPOS>BOND
   1        1        2 1
   2        2        3 1
   3        3        4 1
   4        4        5 2
   5        4        6 2
   6        4        7 1
   7        7        8 1
   8        8        9 ar
   9        9       10 ar
  10       10       11 ar
  11       11       12 ar
  12       12       13 1
  13       13       14 1
  14       14       15 1
  15       15       16 2
  16       15       17 am
  17       17       18 1
  18       18       19 2
  19       19       20 1
  20       20       21 ar
  21       21       22 ar
  22       22       23 ar
  23       23       24 1
  24       23       25 ar
  25       25       26 ar
  26       26       20 ar
  27       19       27 1
  28       27       28 1
  29       28       17 1
  30       28       29 1
  31       29       30 2
  32       30       31 1
  33       31       32 2
  34       32       33 1
  35       33       29 1
  36       12       34 ar
  37       34        8 ar
  38       34       35 1
  39       28       36 1
  40        1       37 1
  41        1       38 1
  42        1       39 1
  43        2       40 1
  44        2       41 1
  45        3       42 1
  46        3       43 1
  47        7       44 1
  48        9       45 1
  49       10       46 1
  50       11       47 1
  51       13       48 1
  52       14       49 1
  53       14       50 1
  54       21       51 1
  55       22       52 1
  56       24       53 1
  57       24       54 1
  58       24       55 1
  59       25       56 1
  60       26       57 1
  61       27       58 1
  62       27       59 1
  63       30       60 1
  64       31       61 1
  65       32       62 1
  66       35       63 1
  67       35       64 1
  68       35       65 1

@<TRIPOS>MOLECULE

  65   68
SMALL
USER_CHARGES
@<TRIPOS>ATOM
   1 C1          -2.4807     2.1724     5.1718 C.3          1    LIG   0.0000
   2 C2          -2.9249     1.7413     3.7835 C.3          1    LIG   0.0000
   3 C3          -1.8649     2.1345     2.7675 C.3          1    LIG   0.0000
   4 S4          -2.3939     1.6213     1.1144 S.o2         1    LIG   0.0000
   5 O5          -3.6374     2.2687     0.7857 O.2          1    LIG   0.0000
   6 O6          -2.5753     0.1930     1.0903 O.2          1    LIG   0.0000
   7 N7          -1.2572     2.0430     0.0248 N.pl3        1    LIG   0.0000
   8 C8          -0.0235     1.3809     0.0083 C.ar         1    LIG   0.0000
   9 C9          -0.0122    -0.0101    -0.0015 C.ar         1    LIG   0.0000
  10 C10          1.2069    -0.6799    -0.0180 C.ar         1    LIG   0.0000
  11 C11          2.4089     0.0202    -0.0247 C.ar         1    LIG   0.0000
  12 C12          2.3838     1.4109    -0.0148 C.ar         1    LIG   0.0000
  13 N13          3.5885     2.1243    -0.0215 N.pl3        1    LIG   0.0000
  14 C14          4.8695     1.4034    -0.0390 C.3          1    LIG   0.0000
  15 C15          5.3249     1.1449     1.3880 C.2          1    LIG   0.0000
  16 O16          4.6542     1.5209     2.3093 O.2          1    LIG   0.0000
  17 N17          6.5262     0.4684     1.6273 N.am         1    LIG   0.0000
  18 N18          7.0304     0.1828     2.8396 N.2          1    LIG   0.0000
  19 C19          7.8473    -0.7737     2.7740 C.2          1    LIG   0.0000
  20 C20          8.5842    -1.3297     3.8918 C.ar         1    LIG   0.0000
  21 C21          8.4060    -0.7934     5.1629 C.ar         1    LIG   0.0000
  22 C22          9.1155    -1.3299     6.2323 C.ar         1    LIG   0.0000
  23 C23          9.9916    -2.3897     6.0237 C.ar         1    LIG   0.0000
  24 C24         10.7628    -2.9695     7.1973 C.3          1    LIG   0.0000
  25 C25         10.1630    -2.9209     4.7490 C.ar         1    LIG   0.0000
  26 C26          9.4577    -2.3905     3.6742 C.ar         1    LIG   0.0000
  27 C27          7.9377    -1.2629     1.3479 C.3          1    LIG   0.0000
  28 C28          7.4295    -0.0493     0.6024 C.3          1    LIG   0.0000
  29 C29          6.6850    -0.4791    -0.6502 C.2          1    LIG   0.0000
  30 C30          7.0114    -0.1011    -1.9172 C.2          1    LIG   0.0000
  31 C31          6.0537    -0.7311    -2.7441 C.2          1    LIG   0.0000
  32 C32          5.2279    -1.4327    -1.9188 C.2          1    LIG   0.0000
  33 O33          5.6327    -1.2658    -0.6802 O.2          1    LIG   0.0000
  34 C34          1.1717     2.0931     0.0017 C.ar         1    LIG   0.0000
  35 C35          1.1507     3.6131     0.0128 C.3          1    LIG   0.0000
  36 H            8.1654     0.5952     0.3951 H            1    LIG   0.0000
  37 H           -3.1781     1.9137     5.8402 H            1    LIG   0.0000
  38 H           -1.6171     1.7227     5.4000 H            1    LIG   0.0000
  39 H           -2.3547     3.1642     5.1884 H            1    LIG   0.0000
  40 H           -3.0509     0.7494     3.7668 H            1    LIG   0.0000
  41 H           -3.7885     2.1909     3.5552 H            1    LIG   0.0000
  42 H           -1.7389     3.1264     2.7842 H            1    LIG   0.0000
  43 H           -1.0014     1.6849     2.9957 H            1    LIG   0.0000
  44 H           -1.4409     2.7745    -0.6317 H            1    LIG   0.0000
  45 H           -0.8707    -0.5228     0.0034 H            1    LIG   0.0000
  46 H            1.2194    -1.6798    -0.0251 H            1    LIG   0.0000
  47 H            3.2803    -0.4703    -0.0365 H            1    LIG   0.0000
  48 H            3.5776     3.1242    -0.0144 H            1    LIG   0.0000
  49 H            5.5559     1.9548    -0.5132 H            1    LIG   0.0000
  50 H            4.7550     0.5317    -0.5154 H            1    LIG   0.0000
  51 H            7.7752    -0.0309     5.3062 H            1    LIG   0.0000
  52 H            8.9957    -0.9537     7.1510 H            1    LIG   0.0000
  53 H           11.3430    -3.7186     6.8775 H            1    LIG   0.0000
  54 H           11.3333    -2.2571     7.6059 H            1    LIG   0.0000
  55 H           10.1197    -3.3145     7.8810 H            1    LIG   0.0000
  56 H           10.7933    -3.6839     4.6059 H            1    LIG   0.0000
  57 H            9.5770    -2.7672     2.7556 H            1    LIG   0.0000
  58 H            7.3546    -2.0606     1.1943 H            1    LIG   0.0000
  59 H            8.8791    -1.4842     1.0933 H            1    LIG   0.0000
  60 H            7.7644     0.4928    -2.2007 H            1    LIG   0.0000
  61 H            5.9940    -0.6730    -3.7406 H            1    LIG   0.0000
  62 H            4.4444    -1.9829    -2.2074 H            1    LIG   0.0000
  63 H            2.0888     3.9595     0.0060 H            1    LIG   0.0000
  64 H            0.6668     3.9458    -0.7967 H            1    LIG   0.0000
  65 H            0.6828     3.9341     0.8362 H            1    LIG   0.0000
@<TRIPOS>BOND
   1        1        2 1
   2        2        3 1
   3        3        4 1
   4        4        5 2
   5        4        6 2
   6        4        7 1
   7        7        8 1
   8        8        9 ar
   9        9       10 ar
  10       10       11 ar
  11       11       12 ar
  12       12       13 1
  13       13       14 1
  14       14       15 1
  15       15       16 2
  16       15       17 am
  17       17       18 1
  18       18       19 2
  19       19       20 1
  20       20       21 ar
  21       21       22 ar
  22       22       23 ar
  23       23       24 1
  24       23       25 ar
  25       25       26 ar
  26       26       20 ar
  27       19       27 1
  28       27       28 1
  29       28       17 1
  30       28       29 1
  31       29       30 2
  32       30       31 1
  33       31       32 2
  34       32       33 1
  35       33       29 1
  36       12       34 ar
  37       34        8 ar
  38       34       35 1
  39       28       36 1
  40        1       37 1
  41        1       38 1
  42        1       39 1
  43        2       40 1
  44        2       41 1
  45        3       42 1
  46        3       43 1
  47        7       44 1
  48        9       45 1
  49       10       46 1
  50       11       47 1
  51       13       48 1
  52       14       49 1
  53       14       50 1
  54       21       51 1
  55       22       52 1
  56       24       53 1
  57       24       54 1
  58       24       55 1
  59       25       56 1
  60       26       57 1
  61       27       58 1
  62       27       59 1
  63       30       60 1
  64       31       61 1
  65       32       62 1
  66       35       63 1
  67       35       64 1
  68       35       65 1

@<TRIPOS>MOLECULE

  65   68
SMALL
USER_CHARGES
@<TRIPOS>ATOM
   1 C1          -2.5801     2.2439    -5.0951 C.3          1    LIG   0.0000
   2 C2          -2.9974     1.7935    -3.7046 C.3          1    LIG   0.0000
   3 C3          -1.9179     2.1727    -2.7040 C.3          1    LIG   0.0000
   4 S4          -2.4148     1.6364    -1.0482 S.o2         1    LIG   0.0000
   5 O5          -2.5960     0.2078    -1.0406 O.2          1    LIG   0.0000
   6 O6          -3.6517     2.2790    -0.6865 O.2          1    LIG   0.0000
   7 N7          -1.2572     2.0430     0.0248 N.pl3        1    LIG   0.0000
   8 C8          -0.0235     1.3809     0.0083 C.ar         1    LIG   0.0000
   9 C9          -0.0122    -0.0101    -0.0015 C.ar         1    LIG   0.0000
  10 C10          1.2069    -0.6799    -0.0180 C.ar         1    LIG   0.0000
  11 C11          2.4089     0.0202    -0.0247 C.ar         1    LIG   0.0000
  12 C12          2.3838     1.4109    -0.0148 C.ar         1    LIG   0.0000
  13 N13          3.5885     2.1243    -0.0215 N.pl3        1    LIG   0.0000
  14 C14          4.8695     1.4034    -0.0390 C.3          1    LIG   0.0000
  15 C15          5.3249     1.1449     1.3880 C.2          1    LIG   0.0000
  16 O16          4.6542     1.5209     2.3093 O.2          1    LIG   0.0000
  17 N17          6.5262     0.4684     1.6273 N.am         1    LIG   0.0000
  18 N18          7.0304     0.1828     2.8396 N.2          1    LIG   0.0000
  19 C19          7.8473    -0.7737     2.7740 C.2          1    LIG   0.0000
  20 C20          8.5842    -1.3297     3.8918 C.ar         1    LIG   0.0000
  21 C21          8.4060    -0.7934     5.1629 C.ar         1    LIG   0.0000
  22 C22          9.1155    -1.3299     6.2323 C.ar         1    LIG   0.0000
  23 C23          9.9916    -2.3897     6.0237 C.ar         1    LIG   0.0000
  24 C24         10.7628    -2.9695     7.1973 C.3          1    LIG   0.0000
  25 C25         10.1630    -2.9209     4.7490 C.ar         1    LIG   0.0000
  26 C26          9.4577    -2.3905     3.6742 C.ar         1    LIG   0.0000
  27 C27          7.9377    -1.2629     1.3479 C.3          1    LIG   0.0000
  28 C28          7.4295    -0.0493     0.6024 C.3          1    LIG   0.0000
  29 C29          6.6850    -0.4791    -0.6502 C.2          1    LIG   0.0000
  30 C30          7.0114    -0.1011    -1.9172 C.2          1    LIG   0.0000
  31 C31          6.0537    -0.7311    -2.7441 C.2          1    LIG   0.0000
  32 C32          5.2279    -1.4327    -1.9188 C.2          1    LIG   0.0000
  33 O33          5.6327    -1.2658    -0.6802 O.2          1    LIG   0.0000
  34 C34          1.1717     2.0931     0.0017 C.ar         1    LIG   0.0000
  35 C35          1.1507     3.6131     0.0128 C.3          1    LIG   0.0000
  36 H            8.1654     0.5952     0.3951 H            1    LIG   0.0000
  37 H           -3.2903     1.9945    -5.7534 H            1    LIG   0.0000
  38 H           -2.4543     3.2360    -5.1004 H            1    LIG   0.0000
  39 H           -1.7212     1.7977    -5.3463 H            1    LIG   0.0000
  40 H           -3.8564     2.2398    -3.4534 H            1    LIG   0.0000
  41 H           -3.1232     0.8015    -3.6993 H            1    LIG   0.0000
  42 H           -1.0590     1.7264    -2.9551 H            1    LIG   0.0000
  43 H           -1.7921     3.1647    -2.7093 H            1    LIG   0.0000
  44 H           -1.4281     2.7652     0.6950 H            1    LIG   0.0000
  45 H           -0.8707    -0.5228     0.0034 H            1    LIG   0.0000
  46 H            1.2194    -1.6798    -0.0251 H            1    LIG   0.0000
  47 H            3.2803    -0.4703    -0.0365 H            1    LIG   0.0000
  48 H            3.5776     3.1242    -0.0144 H            1    LIG   0.0000
  49 H            5.5559     1.9548    -0.5132 H            1    LIG   0.0000
  50 H            4.7550     0.5317    -0.5154 H            1    LIG   0.0000
  51 H            7.7752    -0.0309     5.3062 H            1    LIG   0.0000
  52 H            8.9957    -0.9537     7.1510 H            1    LIG   0.0000
  53 H           11.3430    -3.7186     6.8775 H            1    LIG   0.0000
  54 H           11.3333    -2.2571     7.6059 H            1    LIG   0.0000
  55 H           10.1197    -3.3145     7.8810 H            1    LIG   0.0000
  56 H           10.7933    -3.6839     4.6059 H            1    LIG   0.0000
  57 H            9.5770    -2.7672     2.7556 H            1    LIG   0.0000
  58 H            7.3546    -2.0606     1.1943 H            1    LIG   0.0000
  59 H            8.8791    -1.4842     1.0933 H            1    LIG   0.0000
  60 H            7.7644     0.4928    -2.2007 H            1    LIG   0.0000
  61 H            5.9940    -0.6730    -3.7406 H            1    LIG   0.0000
  62 H            4.4444    -1.9829    -2.2074 H            1    LIG   0.0000
  63 H            2.0888     3.9595     0.0060 H            1    LIG   0.0000
  64 H            0.6668     3.9458    -0.7967 H            1    LIG   0.0000
  65 H            0.6828     3.9341     0.8362 H            1    LIG   0.0000
@<TRIPOS>BOND
   1        1        2 1
   2        2        3 1
   3        3        4 1
   4        4        5 2
   5        4        6 2
   6        4        7 1
   7        7        8 1
   8        8        9 ar
   9        9       10 ar
  10       10       11 ar
  11       11       12 ar
  12       12       13 1
  13       13       14 1
  14       14       15 1
  15       15       16 2
  16       15       17 am
  17       17       18 1
  18       18       19 2
  19       19       20 1
  20       20       21 ar
  21       21       22 ar
  22       22       23 ar
  23       23       24 1
  24       23       25 ar
  25       25       26 ar
  26       26       20 ar
  27       19       27 1
  28       27       28 1
  29       28       17 1
  30       28       29 1
  31       29       30 2
  32       30       31 1
  33       31       32 2
  34       32       33 1
  35       33       29 1
  36       12       34 ar
  37       34        8 ar
  38       34       35 1
  39       28       36 1
  40        1       37 1
  41        1       38 1
  42        1       39 1
  43        2       40 1
  44        2       41 1
  45        3       42 1
  46        3       43 1
  47        7       44 1
  48        9       45 1
  49       10       46 1
  50       11       47 1
  51       13       48 1
  52       14       49 1
  53       14       50 1
  54       21       51 1
  55       22       52 1
  56       24       53 1
  57       24       54 1
  58       24       55 1
  59       25       56 1
  60       26       57 1
  61       27       58 1
  62       27       59 1
  63       30       60 1
  64       31       61 1
  65       32       62 1
  66       35       63 1
  67       35       64 1
  68       35       65 1

@<TRIPOS>MOLECULE

  65   68
SMALL
USER_CHARGES
@<TRIPOS>ATOM
   1 C1          -2.4807     2.1724     5.1718 C.3          1    LIG   0.0000
   2 C2          -2.9249     1.7413     3.7835 C.3          1    LIG   0.0000
   3 C3          -1.8649     2.1345     2.7675 C.3          1    LIG   0.0000
   4 S4          -2.3939     1.6213     1.1144 S.o2         1    LIG   0.0000
   5 O5          -3.6374     2.2687     0.7857 O.2          1    LIG   0.0000
   6 O6          -2.5753     0.1930     1.0903 O.2          1    LIG   0.0000
   7 N7          -1.2572     2.0430     0.0248 N.pl3        1    LIG   0.0000
   8 C8          -0.0235     1.3809     0.0083 C.ar         1    LIG   0.0000
   9 C9          -0.0122    -0.0101    -0.0015 C.ar         1    LIG   0.0000
  10 C10          1.2069    -0.6799    -0.0180 C.ar         1    LIG   0.0000
  11 C11          2.4089     0.0202    -0.0247 C.ar         1    LIG   0.0000
  12 C12          2.3838     1.4109    -0.0148 C.ar         1    LIG   0.0000
  13 N13          3.5885     2.1243    -0.0215 N.pl3        1    LIG   0.0000
  14 C14          4.5346     1.9588    -1.1344 C.3          1    LIG   0.0000
  15 C15          4.2215     2.9746    -2.2209 C.2          1    LIG   0.0000
  16 O16          3.3128     3.7453    -2.0779 O.2          1    LIG   0.0000
  17 N17          4.9928     3.0112    -3.3878 N.am         1    LIG   0.0000
  18 N18          4.8126     3.8602    -4.4135 N.2          1    LIG   0.0000
  19 C19          5.8652     3.9719    -5.0963 C.2          1    LIG   0.0000
  20 C20          6.0176     4.7949    -6.2800 C.ar         1    LIG   0.0000
  21 C21          4.9368     5.5418    -6.7373 C.ar         1    LIG   0.0000
  22 C22          5.0877     6.3297    -7.8737 C.ar         1    LIG   0.0000
  23 C23          6.3083     6.3635    -8.5392 C.ar         1    LIG   0.0000
  24 C24          6.4643     7.2266    -9.7798 C.3          1    LIG   0.0000
  25 C25          7.3846     5.6141    -8.0742 C.ar         1    LIG   0.0000
  26 C26          7.2426     4.8236    -6.9389 C.ar         1    LIG   0.0000
  27 C27          6.9541     3.1206    -4.4874 C.3          1    LIG   0.0000
  28 C28          6.1281     2.1409    -3.6845 C.3          1    LIG   0.0000
  29 C29          6.8775     1.7320    -2.4278 C.2          1    LIG   0.0000
  30 C30          7.2123     0.4523    -2.1035 C.2          1    LIG   0.0000
  31 C31          7.8857     0.5540    -0.8650 C.2          1    LIG   0.0000
  32 C32          7.9025     1.8763    -0.5383 C.2          1    LIG   0.0000
  33 O33          7.2988     2.5509    -1.4902 O.2          1    LIG   0.0000
  34 C34          1.1717     2.0931     0.0017 C.ar         1    LIG   0.0000
  35 C35          1.1507     3.6131     0.0128 C.3          1    LIG   0.0000
  36 H            5.8566     1.3482    -4.2303 H            1    LIG   0.0000
  37 H           -3.1781     1.9137     5.8402 H            1    LIG   0.0000
  38 H           -1.6171     1.7227     5.4000 H            1    LIG   0.0000
  39 H           -2.3547     3.1642     5.1884 H            1    LIG   0.0000
  40 H           -3.0509     0.7494     3.7668 H            1    LIG   0.0000
  41 H           -3.7885     2.1909     3.5552 H            1    LIG   0.0000
  42 H           -1.7389     3.1264     2.7842 H            1    LIG   0.0000
  43 H           -1.0014     1.6849     2.9957 H            1    LIG   0.0000
  44 H           -1.4409     2.7745    -0.6317 H            1    LIG   0.0000
  45 H           -0.8707    -0.5228     0.0034 H            1    LIG   0.0000
  46 H            1.2194    -1.6798    -0.0251 H            1    LIG   0.0000
  47 H            3.2803    -0.4703    -0.0365 H            1    LIG   0.0000
  48 H            3.8055     2.7464     0.7308 H            1    LIG   0.0000
  49 H            4.4515     1.0349    -1.5080 H            1    LIG   0.0000
  50 H            5.4672     2.1018    -0.8032 H            1    LIG   0.0000
  51 H            4.0615     5.5126    -6.2547 H            1    LIG   0.0000
  52 H            4.3185     6.8718    -8.2121 H            1    LIG   0.0000
  53 H            7.3957     7.1375   -10.1329 H            1    LIG   0.0000
  54 H            5.8133     6.9280   -10.4776 H            1    LIG   0.0000
  55 H            6.2867     8.1824    -9.5454 H            1    LIG   0.0000
  56 H            8.2602     5.6440    -8.5564 H            1    LIG   0.0000
  57 H            8.0120     4.2821    -6.6001 H            1    LIG   0.0000
  58 H            7.5590     3.6597    -3.9013 H            1    LIG   0.0000
  59 H            7.4956     2.6576    -5.1892 H            1    LIG   0.0000
  60 H            7.0230    -0.3781    -2.6274 H            1    LIG   0.0000
  61 H            8.2740    -0.1980    -0.3324 H            1    LIG   0.0000
  62 H            8.3069     2.2681     0.2881 H            1    LIG   0.0000
  63 H            2.0888     3.9595     0.0060 H            1    LIG   0.0000
  64 H            0.6668     3.9458    -0.7967 H            1    LIG   0.0000
  65 H            0.6828     3.9341     0.8362 H            1    LIG   0.0000
@<TRIPOS>BOND
   1        1        2 1
   2        2        3 1
   3        3        4 1
   4        4        5 2
   5        4        6 2
   6        4        7 1
   7        7        8 1
   8        8        9 ar
   9        9       10 ar
  10       10       11 ar
  11       11       12 ar
  12       12       13 1
  13       13       14 1
  14       14       15 1
  15       15       16 2
  16       15       17 am
  17       17       18 1
  18       18       19 2
  19       19       20 1
  20       20       21 ar
  21       21       22 ar
  22       22       23 ar
  23       23       24 1
  24       23       25 ar
  25       25       26 ar
  26       26       20 ar
  27       19       27 1
  28       27       28 1
  29       28       17 1
  30       28       29 1
  31       29       30 2
  32       30       31 1
  33       31       32 2
  34       32       33 1
  35       33       29 1
  36       12       34 ar
  37       34        8 ar
  38       34       35 1
  39       28       36 1
  40        1       37 1
  41        1       38 1
  42        1       39 1
  43        2       40 1
  44        2       41 1
  45        3       42 1
  46        3       43 1
  47        7       44 1
  48        9       45 1
  49       10       46 1
  50       11       47 1
  51       13       48 1
  52       14       49 1
  53       14       50 1
  54       21       51 1
  55       22       52 1
  56       24       53 1
  57       24       54 1
  58       24       55 1
  59       25       56 1
  60       26       57 1
  61       27       58 1
  62       27       59 1
  63       30       60 1
  64       31       61 1
  65       32       62 1
  66       35       63 1
  67       35       64 1
  68       35       65 1

@<TRIPOS>MOLECULE

  65   68
SMALL
USER_CHARGES
@<TRIPOS>ATOM
   1 C1          -2.5801     2.2439    -5.0951 C.3          1    LIG   0.0000
   2 C2          -2.9974     1.7935    -3.7046 C.3          1    LIG   0.0000
   3 C3          -1.9179     2.1727    -2.7040 C.3          1    LIG   0.0000
   4 S4          -2.4148     1.6364    -1.0482 S.o2         1    LIG   0.0000
   5 O5          -2.5960     0.2078    -1.0406 O.2          1    LIG   0.0000
   6 O6          -3.6517     2.2790    -0.6865 O.2          1    LIG   0.0000
   7 N7          -1.2572     2.0430     0.0248 N.pl3        1    LIG   0.0000
   8 C8          -0.0235     1.3809     0.0083 C.ar         1    LIG   0.0000
   9 C9          -0.0122    -0.0101    -0.0015 C.ar         1    LIG   0.0000
  10 C10          1.2069    -0.6799    -0.0180 C.ar         1    LIG   0.0000
  11 C11          2.4089     0.0202    -0.0247 C.ar         1    LIG   0.0000
  12 C12          2.3838     1.4109    -0.0148 C.ar         1    LIG   0.0000
  13 N13          3.5885     2.1243    -0.0215 N.pl3        1    LIG   0.0000
  14 C14          4.5346     1.9588    -1.1344 C.3          1    LIG   0.0000
  15 C15          4.2215     2.9746    -2.2209 C.2          1    LIG   0.0000
  16 O16          3.3128     3.7453    -2.0779 O.2          1    LIG   0.0000
  17 N17          4.9928     3.0112    -3.3878 N.am         1    LIG   0.0000
  18 N18          4.8126     3.8602    -4.4135 N.2          1    LIG   0.0000
  19 C19          5.8652     3.9719    -5.0963 C.2          1    LIG   0.0000
  20 C20          6.0176     4.7949    -6.2800 C.ar         1    LIG   0.0000
  21 C21          4.9368     5.5418    -6.7373 C.ar         1    LIG   0.0000
  22 C22          5.0877     6.3297    -7.8737 C.ar         1    LIG   0.0000
  23 C23          6.3083     6.3635    -8.5392 C.ar         1    LIG   0.0000
  24 C24          6.4643     7.2266    -9.7798 C.3          1    LIG   0.0000
  25 C25          7.3846     5.6141    -8.0742 C.ar         1    LIG   0.0000
  26 C26          7.2426     4.8236    -6.9389 C.ar         1    LIG   0.0000
  27 C27          6.9541     3.1206    -4.4874 C.3          1    LIG   0.0000
  28 C28          6.1281     2.1409    -3.6845 C.3          1    LIG   0.0000
  29 C29          6.8775     1.7320    -2.4278 C.2          1    LIG   0.0000
  30 C30          7.2123     0.4523    -2.1035 C.2          1    LIG   0.0000
  31 C31          7.8857     0.5540    -0.8650 C.2          1    LIG   0.0000
  32 C32          7.9025     1.8763    -0.5383 C.2          1    LIG   0.0000
  33 O33          7.2988     2.5509    -1.4902 O.2          1    LIG   0.0000
  34 C34          1.1717     2.0931     0.0017 C.ar         1    LIG   0.0000
  35 C35          1.1507     3.6131     0.0128 C.3          1    LIG   0.0000
  36 H            5.8566     1.3482    -4.2303 H            1    LIG   0.0000
  37 H           -3.2903     1.9945    -5.7534 H            1    LIG   0.0000
  38 H           -2.4543     3.2360    -5.1004 H            1    LIG   0.0000
  39 H           -1.7212     1.7977    -5.3463 H            1    LIG   0.0000
  40 H           -3.8564     2.2398    -3.4534 H            1    LIG   0.0000
  41 H           -3.1232     0.8015    -3.6993 H            1    LIG   0.0000
  42 H           -1.0590     1.7264    -2.9551 H            1    LIG   0.0000
  43 H           -1.7921     3.1647    -2.7093 H            1    LIG   0.0000
  44 H           -1.4281     2.7652     0.6950 H            1    LIG   0.0000
  45 H           -0.8707    -0.5228     0.0034 H            1    LIG   0.0000
  46 H            1.2194    -1.6798    -0.0251 H            1    LIG   0.0000
  47 H            3.2803    -0.4703    -0.0365 H            1    LIG   0.0000
  48 H            3.8055     2.7464     0.7308 H            1    LIG   0.0000
  49 H            4.4515     1.0349    -1.5080 H            1    LIG   0.0000
  50 H            5.4672     2.1018    -0.8032 H            1    LIG   0.0000
  51 H            4.0615     5.5126    -6.2547 H            1    LIG   0.0000
  52 H            4.3185     6.8718    -8.2121 H            1    LIG   0.0000
  53 H            7.3957     7.1375   -10.1329 H            1    LIG   0.0000
  54 H            5.8133     6.9280   -10.4776 H            1    LIG   0.0000
  55 H            6.2867     8.1824    -9.5454 H            1    LIG   0.0000
  56 H            8.2602     5.6440    -8.5564 H            1    LIG   0.0000
  57 H            8.0120     4.2821    -6.6001 H            1    LIG   0.0000
  58 H            7.5590     3.6597    -3.9013 H            1    LIG   0.0000
  59 H            7.4956     2.6576    -5.1892 H            1    LIG   0.0000
  60 H            7.0230    -0.3781    -2.6274 H            1    LIG   0.0000
  61 H            8.2740    -0.1980    -0.3324 H            1    LIG   0.0000
  62 H            8.3069     2.2681     0.2881 H            1    LIG   0.0000
  63 H            2.0888     3.9595     0.0060 H            1    LIG   0.0000
  64 H            0.6668     3.9458    -0.7967 H            1    LIG   0.0000
  65 H            0.6828     3.9341     0.8362 H            1    LIG   0.0000
@<TRIPOS>BOND
   1        1        2 1
   2        2        3 1
   3        3        4 1
   4        4        5 2
   5        4        6 2
   6        4        7 1
   7        7        8 1
   8        8        9 ar
   9        9       10 ar
  10       10       11 ar
  11       11       12 ar
  12       12       13 1
  13       13       14 1
  14       14       15 1
  15       15       16 2
  16       15       17 am
  17       17       18 1
  18       18       19 2
  19       19       20 1
  20       20       21 ar
  21       21       22 ar
  22       22       23 ar
  23       23       24 1
  24       23       25 ar
  25       25       26 ar
  26       26       20 ar
  27       19       27 1
  28       27       28 1
  29       28       17 1
  30       28       29 1
  31       29       30 2
  32       30       31 1
  33       31       32 2
  34       32       33 1
  35       33       29 1
  36       12       34 ar
  37       34        8 ar
  38       34       35 1
  39       28       36 1
  40        1       37 1
  41        1       38 1
  42        1       39 1
  43        2       40 1
  44        2       41 1
  45        3       42 1
  46        3       43 1
  47        7       44 1
  48        9       45 1
  49       10       46 1
  50       11       47 1
  51       13       48 1
  52       14       49 1
  53       14       50 1
  54       21       51 1
  55       22       52 1
  56       24       53 1
  57       24       54 1
  58       24       55 1
  59       25       56 1
  60       26       57 1
  61       27       58 1
  62       27       59 1
  63       30       60 1
  64       31       61 1
  65       32       62 1
  66       35       63 1
  67       35       64 1
  68       35       65 1

@<TRIPOS>MOLECULE

  65   68
SMALL
USER_CHARGES
@<TRIPOS>ATOM
   1 C1          -2.4807     2.1724     5.1718 C.3          1    LIG   0.0000
   2 C2          -2.9249     1.7413     3.7835 C.3          1    LIG   0.0000
   3 C3          -1.8649     2.1345     2.7675 C.3          1    LIG   0.0000
   4 S4          -2.3939     1.6213     1.1144 S.o2         1    LIG   0.0000
   5 O5          -3.6374     2.2687     0.7857 O.2          1    LIG   0.0000
   6 O6          -2.5753     0.1930     1.0903 O.2          1    LIG   0.0000
   7 N7          -1.2572     2.0430     0.0248 N.pl3        1    LIG   0.0000
   8 C8          -0.0235     1.3809     0.0083 C.ar         1    LIG   0.0000
   9 C9          -0.0122    -0.0101    -0.0015 C.ar         1    LIG   0.0000
  10 C10          1.2069    -0.6799    -0.0180 C.ar         1    LIG   0.0000
  11 C11          2.4089     0.0202    -0.0247 C.ar         1    LIG   0.0000
  12 C12          2.3838     1.4109    -0.0148 C.ar         1    LIG   0.0000
  13 N13          3.5885     2.1243    -0.0215 N.pl3        1    LIG   0.0000
  14 C14          4.5346     1.9588    -1.1344 C.3          1    LIG   0.0000
  15 C15          5.4998     0.8289    -0.8151 C.2          1    LIG   0.0000
  16 O16          5.4048     0.2338     0.2226 O.2          1    LIG   0.0000
  17 N17          6.4992     0.4826    -1.7312 N.am         1    LIG   0.0000
  18 N18          7.4065    -0.4937    -1.5611 N.2          1    LIG   0.0000
  19 C19          7.8750    -0.8715    -2.6676 C.2          1    LIG   0.0000
  20 C20          8.8830    -1.8975    -2.8490 C.ar         1    LIG   0.0000
  21 C21          9.4060    -2.5467    -1.7355 C.ar         1    LIG   0.0000
  22 C22         10.3733    -3.5303    -1.9145 C.ar         1    LIG   0.0000
  23 C23         10.8073    -3.8536    -3.1955 C.ar         1    LIG   0.0000
  24 C24         11.8643    -4.9288    -3.3819 C.3          1    LIG   0.0000
  25 C25         10.2780    -3.1998    -4.3040 C.ar         1    LIG   0.0000
  26 C26          9.3107    -2.2153    -4.1343 C.ar         1    LIG   0.0000
  27 C27          7.2181    -0.0957    -3.7847 C.3          1    LIG   0.0000
  28 C28          6.7195     1.1157    -3.0293 C.3          1    LIG   0.0000
  29 C29          5.4255     1.6199    -3.6454 C.2          1    LIG   0.0000
  30 C30          5.2375     2.8739    -4.1423 C.2          1    LIG   0.0000
  31 C31          3.9003     2.8883    -4.5999 C.2          1    LIG   0.0000
  32 C32          3.3874     1.6528    -4.3431 C.2          1    LIG   0.0000
  33 O33          4.3209     0.9206    -3.7791 O.2          1    LIG   0.0000
  34 C34          1.1717     2.0931     0.0017 C.ar         1    LIG   0.0000
  35 C35          1.1507     3.6131     0.0128 C.3          1    LIG   0.0000
  36 H            7.4128     1.8346    -2.9797 H            1    LIG   0.0000
  37 H           -3.1781     1.9137     5.8402 H            1    LIG   0.0000
  38 H           -1.6171     1.7227     5.4000 H            1    LIG   0.0000
  39 H           -2.3547     3.1642     5.1884 H            1    LIG   0.0000
  40 H           -3.0509     0.7494     3.7668 H            1    LIG   0.0000
  41 H           -3.7885     2.1909     3.5552 H            1    LIG   0.0000
  42 H           -1.7389     3.1264     2.7842 H            1    LIG   0.0000
  43 H           -1.0014     1.6849     2.9957 H            1    LIG   0.0000
  44 H           -1.4409     2.7745    -0.6317 H            1    LIG   0.0000
  45 H           -0.8707    -0.5228     0.0034 H            1    LIG   0.0000
  46 H            1.2194    -1.6798    -0.0251 H            1    LIG   0.0000
  47 H            3.2803    -0.4703    -0.0365 H            1    LIG   0.0000
  48 H            3.8055     2.7464     0.7308 H            1    LIG   0.0000
  49 H            5.0467     2.8076    -1.2656 H            1    LIG   0.0000
  50 H            4.0310     1.7408    -1.9704 H            1    LIG   0.0000
  51 H            9.0903    -2.3092    -0.8169 H            1    LIG   0.0000
  52 H           10.7565    -4.0048    -1.1220 H            1    LIG   0.0000
  53 H           12.0615    -5.0371    -4.3563 H            1    LIG   0.0000
  54 H           12.6994    -4.6624    -2.9005 H            1    LIG   0.0000
  55 H           11.5279    -5.7947    -3.0117 H            1    LIG   0.0000
  56 H           10.5932    -3.4380    -5.2227 H            1    LIG   0.0000
  57 H            8.9269    -1.7412    -4.9267 H            1    LIG   0.0000
  58 H            6.4651    -0.6089    -4.1965 H            1    LIG   0.0000
  59 H            7.8761     0.1575    -4.4940 H            1    LIG   0.0000
  60 H            5.9008     3.6214    -4.1761 H            1    LIG   0.0000
  61 H            3.4236     3.6558    -5.0285 H            1    LIG   0.0000
  62 H            2.4560     1.3532    -4.5495 H            1    LIG   0.0000
  63 H            2.0888     3.9595     0.0060 H            1    LIG   0.0000
  64 H            0.6668     3.9458    -0.7967 H            1    LIG   0.0000
  65 H            0.6828     3.9341     0.8362 H            1    LIG   0.0000
@<TRIPOS>BOND
   1        1        2 1
   2        2        3 1
   3        3        4 1
   4        4        5 2
   5        4        6 2
   6        4        7 1
   7        7        8 1
   8        8        9 ar
   9        9       10 ar
  10       10       11 ar
  11       11       12 ar
  12       12       13 1
  13       13       14 1
  14       14       15 1
  15       15       16 2
  16       15       17 am
  17       17       18 1
  18       18       19 2
  19       19       20 1
  20       20       21 ar
  21       21       22 ar
  22       22       23 ar
  23       23       24 1
  24       23       25 ar
  25       25       26 ar
  26       26       20 ar
  27       19       27 1
  28       27       28 1
  29       28       17 1
  30       28       29 1
  31       29       30 2
  32       30       31 1
  33       31       32 2
  34       32       33 1
  35       33       29 1
  36       12       34 ar
  37       34        8 ar
  38       34       35 1
  39       28       36 1
  40        1       37 1
  41        1       38 1
  42        1       39 1
  43        2       40 1
  44        2       41 1
  45        3       42 1
  46        3       43 1
  47        7       44 1
  48        9       45 1
  49       10       46 1
  50       11       47 1
  51       13       48 1
  52       14       49 1
  53       14       50 1
  54       21       51 1
  55       22       52 1
  56       24       53 1
  57       24       54 1
  58       24       55 1
  59       25       56 1
  60       26       57 1
  61       27       58 1
  62       27       59 1
  63       30       60 1
  64       31       61 1
  65       32       62 1
  66       35       63 1
  67       35       64 1
  68       35       65 1

@<TRIPOS>MOLECULE

  65   68
SMALL
USER_CHARGES
@<TRIPOS>ATOM
   1 C1          -2.5801     2.2439    -5.0951 C.3          1    LIG   0.0000
   2 C2          -2.9974     1.7935    -3.7046 C.3          1    LIG   0.0000
   3 C3          -1.9179     2.1727    -2.7040 C.3          1    LIG   0.0000
   4 S4          -2.4148     1.6364    -1.0482 S.o2         1    LIG   0.0000
   5 O5          -2.5960     0.2078    -1.0406 O.2          1    LIG   0.0000
   6 O6          -3.6517     2.2790    -0.6865 O.2          1    LIG   0.0000
   7 N7          -1.2572     2.0430     0.0248 N.pl3        1    LIG   0.0000
   8 C8          -0.0235     1.3809     0.0083 C.ar         1    LIG   0.0000
   9 C9          -0.0122    -0.0101    -0.0015 C.ar         1    LIG   0.0000
  10 C10          1.2069    -0.6799    -0.0180 C.ar         1    LIG   0.0000
  11 C11          2.4089     0.0202    -0.0247 C.ar         1    LIG   0.0000
  12 C12          2.3838     1.4109    -0.0148 C.ar         1    LIG   0.0000
  13 N13          3.5885     2.1243    -0.0215 N.pl3        1    LIG   0.0000
  14 C14          4.5346     1.9588    -1.1344 C.3          1    LIG   0.0000
  15 C15          5.4998     0.8289    -0.8151 C.2          1    LIG   0.0000
  16 O16          5.4048     0.2338     0.2226 O.2          1    LIG   0.0000
  17 N17          6.4992     0.4826    -1.7312 N.am         1    LIG   0.0000
  18 N18          7.4065    -0.4937    -1.5611 N.2          1    LIG   0.0000
  19 C19          7.8750    -0.8715    -2.6676 C.2          1    LIG   0.0000
  20 C20          8.8830    -1.8975    -2.8490 C.ar         1    LIG   0.0000
  21 C21          9.4060    -2.5467    -1.7355 C.ar         1    LIG   0.0000
  22 C22         10.3733    -3.5303    -1.9145 C.ar         1    LIG   0.0000
  23 C23         10.8073    -3.8536    -3.1955 C.ar         1    LIG   0.0000
  24 C24         11.8643    -4.9288    -3.3819 C.3          1    LIG   0.0000
  25 C25         10.2780    -3.1998    -4.3040 C.ar         1    LIG   0.0000
  26 C26          9.3107    -2.2153    -4.1343 C.ar         1    LIG   0.0000
  27 C27          7.2181    -0.0957    -3.7847 C.3          1    LIG   0.0000
  28 C28          6.7195     1.1157    -3.0293 C.3          1    LIG   0.0000
  29 C29          5.4255     1.6199    -3.6454 C.2          1    LIG   0.0000
  30 C30          5.2375     2.8739    -4.1423 C.2          1    LIG   0.0000
  31 C31          3.9003     2.8883    -4.5999 C.2          1    LIG   0.0000
  32 C32          3.3874     1.6528    -4.3431 C.2          1    LIG   0.0000
  33 O33          4.3209     0.9206    -3.7791 O.2          1    LIG   0.0000
  34 C34          1.1717     2.0931     0.0017 C.ar         1    LIG   0.0000
  35 C35          1.1507     3.6131     0.0128 C.3          1    LIG   0.0000
  36 H            7.4128     1.8346    -2.9797 H            1    LIG   0.0000
  37 H           -3.2903     1.9945    -5.7534 H            1    LIG   0.0000
  38 H           -2.4543     3.2360    -5.1004 H            1    LIG   0.0000
  39 H           -1.7212     1.7977    -5.3463 H            1    LIG   0.0000
  40 H           -3.8564     2.2398    -3.4534 H            1    LIG   0.0000
  41 H           -3.1232     0.8015    -3.6993 H            1    LIG   0.0000
  42 H           -1.0590     1.7264    -2.9551 H            1    LIG   0.0000
  43 H           -1.7921     3.1647    -2.7093 H            1    LIG   0.0000
  44 H           -1.4281     2.7652     0.6950 H            1    LIG   0.0000
  45 H           -0.8707    -0.5228     0.0034 H            1    LIG   0.0000
  46 H            1.2194    -1.6798    -0.0251 H            1    LIG   0.0000
  47 H            3.2803    -0.4703    -0.0365 H            1    LIG   0.0000
  48 H            3.8055     2.7464     0.7308 H            1    LIG   0.0000
  49 H            5.0467     2.8076    -1.2656 H            1    LIG   0.0000
  50 H            4.0310     1.7408    -1.9704 H            1    LIG   0.0000
  51 H            9.0903    -2.3092    -0.8169 H            1    LIG   0.0000
  52 H           10.7565    -4.0048    -1.1220 H            1    LIG   0.0000
  53 H           12.0615    -5.0371    -4.3563 H            1    LIG   0.0000
  54 H           12.6994    -4.6624    -2.9005 H            1    LIG   0.0000
  55 H           11.5279    -5.7947    -3.0117 H            1    LIG   0.0000
  56 H           10.5932    -3.4380    -5.2227 H            1    LIG   0.0000
  57 H            8.9269    -1.7412    -4.9267 H            1    LIG   0.0000
  58 H            6.4651    -0.6089    -4.1965 H            1    LIG   0.0000
  59 H            7.8761     0.1575    -4.4940 H            1    LIG   0.0000
  60 H            5.9008     3.6214    -4.1761 H            1    LIG   0.0000
  61 H            3.4236     3.6558    -5.0285 H            1    LIG   0.0000
  62 H            2.4560     1.3532    -4.5495 H            1    LIG   0.0000
  63 H            2.0888     3.9595     0.0060 H            1    LIG   0.0000
  64 H            0.6668     3.9458    -0.7967 H            1    LIG   0.0000
  65 H            0.6828     3.9341     0.8362 H            1    LIG   0.0000
@<TRIPOS>BOND
   1        1        2 1
   2        2        3 1
   3        3        4 1
   4        4        5 2
   5        4        6 2
   6        4        7 1
   7        7        8 1
   8        8        9 ar
   9        9       10 ar
  10       10       11 ar
  11       11       12 ar
  12       12       13 1
  13       13       14 1
  14       14       15 1
  15       15       16 2
  16       15       17 am
  17       17       18 1
  18       18       19 2
  19       19       20 1
  20       20       21 ar
  21       21       22 ar
  22       22       23 ar
  23       23       24 1
  24       23       25 ar
  25       25       26 ar
  26       26       20 ar
  27       19       27 1
  28       27       28 1
  29       28       17 1
  30       28       29 1
  31       29       30 2
  32       30       31 1
  33       31       32 2
  34       32       33 1
  35       33       29 1
  36       12       34 ar
  37       34        8 ar
  38       34       35 1
  39       28       36 1
  40        1       37 1
  41        1       38 1
  42        1       39 1
  43        2       40 1
  44        2       41 1
  45        3       42 1
  46        3       43 1
  47        7       44 1
  48        9       45 1
  49       10       46 1
  50       11       47 1
  51       13       48 1
  52       14       49 1
  53       14       50 1
  54       21       51 1
  55       22       52 1
  56       24       53 1
  57       24       54 1
  58       24       55 1
  59       25       56 1
  60       26       57 1
  61       27       58 1
  62       27       59 1
  63       30       60 1
  64       31       61 1
  65       32       62 1
  66       35       63 1
  67       35       64 1
  68       35       65 1

@<TRIPOS>MOLECULE

  65   68
SMALL
USER_CHARGES
@<TRIPOS>ATOM
   1 C1          -2.4807     2.1724     5.1718 C.3          1    LIG   0.0000
   2 C2          -2.9249     1.7413     3.7835 C.3          1    LIG   0.0000
   3 C3          -1.8649     2.1345     2.7675 C.3          1    LIG   0.0000
   4 S4          -2.3939     1.6213     1.1144 S.o2         1    LIG   0.0000
   5 O5          -3.6374     2.2687     0.7857 O.2          1    LIG   0.0000
   6 O6          -2.5753     0.1930     1.0903 O.2          1    LIG   0.0000
   7 N7          -1.2572     2.0430     0.0248 N.pl3        1    LIG   0.0000
   8 C8          -0.0235     1.3809     0.0083 C.ar         1    LIG   0.0000
   9 C9          -0.0122    -0.0101    -0.0015 C.ar         1    LIG   0.0000
  10 C10          1.2069    -0.6799    -0.0180 C.ar         1    LIG   0.0000
  11 C11          2.4089     0.0202    -0.0247 C.ar         1    LIG   0.0000
  12 C12          2.3838     1.4109    -0.0148 C.ar         1    LIG   0.0000
  13 N13          3.5885     2.1243    -0.0215 N.pl3        1    LIG   0.0000
  14 C14          3.8860     3.0542    -1.1205 C.3          1    LIG   0.0000
  15 C15          4.6139     2.3118    -2.2293 C.2          1    LIG   0.0000
  16 O16          4.8540     1.1421    -2.1110 O.2          1    LIG   0.0000
  17 N17          5.0038     2.9925    -3.3881 N.am         1    LIG   0.0000
  18 N18          5.6501     2.4458    -4.4315 N.2          1    LIG   0.0000
  19 C19          5.4874     3.1345    -5.4735 C.2          1    LIG   0.0000
  20 C20          6.0558     2.8405    -6.7743 C.ar         1    LIG   0.0000
  21 C21          6.8549     1.7129    -6.9324 C.ar         1    LIG   0.0000
  22 C22          7.3983     1.4351    -8.1824 C.ar         1    LIG   0.0000
  23 C23          7.1412     2.2810    -9.2559 C.ar         1    LIG   0.0000
  24 C24          7.7390     1.9703   -10.6176 C.3          1    LIG   0.0000
  25 C25          6.3397     3.4063    -9.0892 C.ar         1    LIG   0.0000
  26 C26          5.7924     3.6916    -7.8430 C.ar         1    LIG   0.0000
  27 C27          4.5984     4.3156    -5.1637 C.3          1    LIG   0.0000
  28 C28          4.7668     4.4074    -3.6637 C.3          1    LIG   0.0000
  29 C29          3.4829     4.9065    -3.0231 C.2          1    LIG   0.0000
  30 C30          3.3810     6.0267    -2.2553 C.2          1    LIG   0.0000
  31 C31          2.0196     6.0898    -1.8806 C.2          1    LIG   0.0000
  32 C32          1.4102     5.0097    -2.4440 C.2          1    LIG   0.0000
  33 O33          2.3067     4.3284    -3.1206 O.2          1    LIG   0.0000
  34 C34          1.1717     2.0931     0.0017 C.ar         1    LIG   0.0000
  35 C35          1.1507     3.6131     0.0128 C.3          1    LIG   0.0000
  36 H            5.5525     4.9723    -3.4114 H            1    LIG   0.0000
  37 H           -3.1781     1.9137     5.8402 H            1    LIG   0.0000
  38 H           -1.6171     1.7227     5.4000 H            1    LIG   0.0000
  39 H           -2.3547     3.1642     5.1884 H            1    LIG   0.0000
  40 H           -3.0509     0.7494     3.7668 H            1    LIG   0.0000
  41 H           -3.7885     2.1909     3.5552 H            1    LIG   0.0000
  42 H           -1.7389     3.1264     2.7842 H            1    LIG   0.0000
  43 H           -1.0014     1.6849     2.9957 H            1    LIG   0.0000
  44 H           -1.4409     2.7745    -0.6317 H            1    LIG   0.0000
  45 H           -0.8707    -0.5228     0.0034 H            1    LIG   0.0000
  46 H            1.2194    -1.6798    -0.0251 H            1    LIG   0.0000
  47 H            3.2803    -0.4703    -0.0365 H            1    LIG   0.0000
  48 H            4.2466     2.0012     0.7213 H            1    LIG   0.0000
  49 H            4.4636     3.7968    -0.7816 H            1    LIG   0.0000
  50 H            3.0320     3.4325    -1.4774 H            1    LIG   0.0000
  51 H            7.0366     1.1090    -6.1564 H            1    LIG   0.0000
  52 H            7.9738     0.6272    -8.3091 H            1    LIG   0.0000
  53 H            7.4584     2.6718   -11.2728 H            1    LIG   0.0000
  54 H            8.7366     1.9584   -10.5489 H            1    LIG   0.0000
  55 H            7.4155     1.0763   -10.9276 H            1    LIG   0.0000
  56 H            6.1574     4.0097    -9.8654 H            1    LIG   0.0000
  57 H            5.2163     4.4991    -7.7165 H            1    LIG   0.0000
  58 H            3.6477     4.1378    -5.4176 H            1    LIG   0.0000
  59 H            4.9160     5.1459    -5.6217 H            1    LIG   0.0000
  60 H            4.1104     6.6654    -2.0101 H            1    LIG   0.0000
  61 H            1.5880     6.7906    -1.3126 H            1    LIG   0.0000
  62 H            0.4421     4.7747    -2.3572 H            1    LIG   0.0000
  63 H            2.0888     3.9595     0.0060 H            1    LIG   0.0000
  64 H            0.6668     3.9458    -0.7967 H            1    LIG   0.0000
  65 H            0.6828     3.9341     0.8362 H            1    LIG   0.0000
@<TRIPOS>BOND
   1        1        2 1
   2        2        3 1
   3        3        4 1
   4        4        5 2
   5        4        6 2
   6        4        7 1
   7        7        8 1
   8        8        9 ar
   9        9       10 ar
  10       10       11 ar
  11       11       12 ar
  12       12       13 1
  13       13       14 1
  14       14       15 1
  15       15       16 2
  16       15       17 am
  17       17       18 1
  18       18       19 2
  19       19       20 1
  20       20       21 ar
  21       21       22 ar
  22       22       23 ar
  23       23       24 1
  24       23       25 ar
  25       25       26 ar
  26       26       20 ar
  27       19       27 1
  28       27       28 1
  29       28       17 1
  30       28       29 1
  31       29       30 2
  32       30       31 1
  33       31       32 2
  34       32       33 1
  35       33       29 1
  36       12       34 ar
  37       34        8 ar
  38       34       35 1
  39       28       36 1
  40        1       37 1
  41        1       38 1
  42        1       39 1
  43        2       40 1
  44        2       41 1
  45        3       42 1
  46        3       43 1
  47        7       44 1
  48        9       45 1
  49       10       46 1
  50       11       47 1
  51       13       48 1
  52       14       49 1
  53       14       50 1
  54       21       51 1
  55       22       52 1
  56       24       53 1
  57       24       54 1
  58       24       55 1
  59       25       56 1
  60       26       57 1
  61       27       58 1
  62       27       59 1
  63       30       60 1
  64       31       61 1
  65       32       62 1
  66       35       63 1
  67       35       64 1
  68       35       65 1

@<TRIPOS>MOLECULE

  65   68
SMALL
USER_CHARGES
@<TRIPOS>ATOM
   1 C1          -2.5801     2.2439    -5.0951 C.3          1    LIG   0.0000
   2 C2          -2.9974     1.7935    -3.7046 C.3          1    LIG   0.0000
   3 C3          -1.9179     2.1727    -2.7040 C.3          1    LIG   0.0000
   4 S4          -2.4148     1.6364    -1.0482 S.o2         1    LIG   0.0000
   5 O5          -2.5960     0.2078    -1.0406 O.2          1    LIG   0.0000
   6 O6          -3.6517     2.2790    -0.6865 O.2          1    LIG   0.0000
   7 N7          -1.2572     2.0430     0.0248 N.pl3        1    LIG   0.0000
   8 C8          -0.0235     1.3809     0.0083 C.ar         1    LIG   0.0000
   9 C9          -0.0122    -0.0101    -0.0015 C.ar         1    LIG   0.0000
  10 C10          1.2069    -0.6799    -0.0180 C.ar         1    LIG   0.0000
  11 C11          2.4089     0.0202    -0.0247 C.ar         1    LIG   0.0000
  12 C12          2.3838     1.4109    -0.0148 C.ar         1    LIG   0.0000
  13 N13          3.5885     2.1243    -0.0215 N.pl3        1    LIG   0.0000
  14 C14          3.8860     3.0542    -1.1205 C.3          1    LIG   0.0000
  15 C15          4.6139     2.3118    -2.2293 C.2          1    LIG   0.0000
  16 O16          4.8540     1.1421    -2.1110 O.2          1    LIG   0.0000
  17 N17          5.0038     2.9925    -3.3881 N.am         1    LIG   0.0000
  18 N18          5.6501     2.4458    -4.4315 N.2          1    LIG   0.0000
  19 C19          5.4874     3.1345    -5.4735 C.2          1    LIG   0.0000
  20 C20          6.0558     2.8405    -6.7743 C.ar         1    LIG   0.0000
  21 C21          6.8549     1.7129    -6.9324 C.ar         1    LIG   0.0000
  22 C22          7.3983     1.4351    -8.1824 C.ar         1    LIG   0.0000
  23 C23          7.1412     2.2810    -9.2559 C.ar         1    LIG   0.0000
  24 C24          7.7390     1.9703   -10.6176 C.3          1    LIG   0.0000
  25 C25          6.3397     3.4063    -9.0892 C.ar         1    LIG   0.0000
  26 C26          5.7924     3.6916    -7.8430 C.ar         1    LIG   0.0000
  27 C27          4.5984     4.3156    -5.1637 C.3          1    LIG   0.0000
  28 C28          4.7668     4.4074    -3.6637 C.3          1    LIG   0.0000
  29 C29          3.4829     4.9065    -3.0231 C.2          1    LIG   0.0000
  30 C30          3.3810     6.0267    -2.2553 C.2          1    LIG   0.0000
  31 C31          2.0196     6.0898    -1.8806 C.2          1    LIG   0.0000
  32 C32          1.4102     5.0097    -2.4440 C.2          1    LIG   0.0000
  33 O33          2.3067     4.3284    -3.1206 O.2          1    LIG   0.0000
  34 C34          1.1717     2.0931     0.0017 C.ar         1    LIG   0.0000
  35 C35          1.1507     3.6131     0.0128 C.3          1    LIG   0.0000
  36 H            5.5525     4.9723    -3.4114 H            1    LIG   0.0000
  37 H           -3.2903     1.9945    -5.7534 H            1    LIG   0.0000
  38 H           -2.4543     3.2360    -5.1004 H            1    LIG   0.0000
  39 H           -1.7212     1.7977    -5.3463 H            1    LIG   0.0000
  40 H           -3.8564     2.2398    -3.4534 H            1    LIG   0.0000
  41 H           -3.1232     0.8015    -3.6993 H            1    LIG   0.0000
  42 H           -1.0590     1.7264    -2.9551 H            1    LIG   0.0000
  43 H           -1.7921     3.1647    -2.7093 H            1    LIG   0.0000
  44 H           -1.4281     2.7652     0.6950 H            1    LIG   0.0000
  45 H           -0.8707    -0.5228     0.0034 H            1    LIG   0.0000
  46 H            1.2194    -1.6798    -0.0251 H            1    LIG   0.0000
  47 H            3.2803    -0.4703    -0.0365 H            1    LIG   0.0000
  48 H            4.2466     2.0012     0.7213 H            1    LIG   0.0000
  49 H            4.4636     3.7968    -0.7816 H            1    LIG   0.0000
  50 H            3.0320     3.4325    -1.4774 H            1    LIG   0.0000
  51 H            7.0366     1.1090    -6.1564 H            1    LIG   0.0000
  52 H            7.9738     0.6272    -8.3091 H            1    LIG   0.0000
  53 H            7.4584     2.6718   -11.2728 H            1    LIG   0.0000
  54 H            8.7366     1.9584   -10.5489 H            1    LIG   0.0000
  55 H            7.4155     1.0763   -10.9276 H            1    LIG   0.0000
  56 H            6.1574     4.0097    -9.8654 H            1    LIG   0.0000
  57 H            5.2163     4.4991    -7.7165 H            1    LIG   0.0000
  58 H            3.6477     4.1378    -5.4176 H            1    LIG   0.0000
  59 H            4.9160     5.1459    -5.6217 H            1    LIG   0.0000
  60 H            4.1104     6.6654    -2.0101 H            1    LIG   0.0000
  61 H            1.5880     6.7906    -1.3126 H            1    LIG   0.0000
  62 H            0.4421     4.7747    -2.3572 H            1    LIG   0.0000
  63 H            2.0888     3.9595     0.0060 H            1    LIG   0.0000
  64 H            0.6668     3.9458    -0.7967 H            1    LIG   0.0000
  65 H            0.6828     3.9341     0.8362 H            1    LIG   0.0000
@<TRIPOS>BOND
   1        1        2 1
   2        2        3 1
   3        3        4 1
   4        4        5 2
   5        4        6 2
   6        4        7 1
   7        7        8 1
   8        8        9 ar
   9        9       10 ar
  10       10       11 ar
  11       11       12 ar
  12       12       13 1
  13       13       14 1
  14       14       15 1
  15       15       16 2
  16       15       17 am
  17       17       18 1
  18       18       19 2
  19       19       20 1
  20       20       21 ar
  21       21       22 ar
  22       22       23 ar
  23       23       24 1
  24       23       25 ar
  25       25       26 ar
  26       26       20 ar
  27       19       27 1
  28       27       28 1
  29       28       17 1
  30       28       29 1
  31       29       30 2
  32       30       31 1
  33       31       32 2
  34       32       33 1
  35       33       29 1
  36       12       34 ar
  37       34        8 ar
  38       34       35 1
  39       28       36 1
  40        1       37 1
  41        1       38 1
  42        1       39 1
  43        2       40 1
  44        2       41 1
  45        3       42 1
  46        3       43 1
  47        7       44 1
  48        9       45 1
  49       10       46 1
  50       11       47 1
  51       13       48 1
  52       14       49 1
  53       14       50 1
  54       21       51 1
  55       22       52 1
  56       24       53 1
  57       24       54 1
  58       24       55 1
  59       25       56 1
  60       26       57 1
  61       27       58 1
  62       27       59 1
  63       30       60 1
  64       31       61 1
  65       32       62 1
  66       35       63 1
  67       35       64 1
  68       35       65 1

