@<TRIPOS>MOLECULE
*****
 65 68 0 0 0
SMALL
USER_CHARGES

@<TRIPOS>ATOM
      1 C1         -2.4807    2.1724    5.1718 C.3     1  LIG1        0.0000
      2 C2         -2.9249    1.7413    3.7835 C.3     1  LIG1        0.0000
      3 C3         -1.8649    2.1345    2.7675 C.3     1  LIG1        0.0000
      4 S4         -2.3939    1.6213    1.1144 S.O2    1  LIG1        0.0000
      5 O5         -3.6374    2.2687    0.7857 O.2     1  LIG1        0.0000
      6 O6         -2.5753    0.1930    1.0903 O.2     1  LIG1        0.0000
      7 N7         -1.2572    2.0430    0.0248 N.pl3   1  LIG1        0.0000
      8 C8         -0.0235    1.3809    0.0083 C.3     1  LIG1        0.0000
      9 C9         -0.0122   -0.0101   -0.0015 C.3     1  LIG1        0.0000
     10 C10         1.2069   -0.6799   -0.0180 C.3     1  LIG1        0.0000
     11 C11         2.4089    0.0202   -0.0247 C.3     1  LIG1        0.0000
     12 C12         2.3838    1.4109   -0.0148 C.3     1  LIG1        0.0000
     13 N13         3.5885    2.1243   -0.0215 N.pl3   1  LIG1        0.0000
     14 C14         4.8695    1.4034   -0.0390 C.3     1  LIG1        0.0000
     15 C15         6.0139    2.4038   -0.0431 C.2     1  LIG1        0.0000
     16 O16         5.7817    3.5811   -0.0326 O.2     1  LIG1        0.0000
     17 N17         7.3381    1.9519   -0.0591 N.am    1  LIG1        0.0000
     18 N18         8.4284    2.7372   -0.0641 N.2     1  LIG1        0.0000
     19 C19         9.4373    2.1102    0.3548 C.2     1  LIG1        0.0000
     20 C20        10.7778    2.6510    0.4671 C.3     1  LIG1        0.0000
     21 C21        11.0171    3.9690    0.0923 C.3     1  LIG1        0.0000
     22 C22        12.3049    4.4833    0.2016 C.3     1  LIG1        0.0000
     23 C23        13.3355    3.6814    0.6802 C.3     1  LIG1        0.0000
     24 C24        14.7392    4.2511    0.7961 C.3     1  LIG1        0.0000
     25 C25        13.0870    2.3643    1.0540 C.3     1  LIG1        0.0000
     26 C26        11.8025    1.8420    0.9479 C.3     1  LIG1        0.0000
     27 C27         9.0363    0.7040    0.7327 C.3     1  LIG1        0.0000
     28 C28         7.7594    0.5531   -0.0633 C.3     1  LIG1        0.0000
     29 C29         6.7816   -0.3398    0.6813 C.2     1  LIG1        0.0000
     30 C30         6.2551   -1.4960    0.1904 C.2     1  LIG1        0.0000
     31 C31         5.4076   -1.9750    1.2152 C.2     1  LIG1        0.0000
     32 C32         5.4849   -1.0766    2.2362 C.2     1  LIG1        0.0000
     33 O33         6.3136   -0.1182    1.8891 O.2     1  LIG1        0.0000
     34 C34         1.1717    2.0931    0.0017 C.3     1  LIG1        0.0000
     35 C35         1.1507    3.6131    0.0128 C.3     1  LIG1        0.0000
     36 H           7.9357    0.2205   -0.9898 H       1  LIG1        0.0000
     37 H          -3.1781    1.9137    5.8402 H       1  LIG1        0.0000
     38 H          -1.6171    1.7227    5.4000 H       1  LIG1        0.0000
     39 H          -2.3547    3.1642    5.1884 H       1  LIG1        0.0000
     40 H          -3.0509    0.7494    3.7668 H       1  LIG1        0.0000
     41 H          -3.7885    2.1909    3.5552 H       1  LIG1        0.0000
     42 H          -1.7389    3.1264    2.7842 H       1  LIG1        0.0000
     43 H          -1.0014    1.6849    2.9957 H       1  LIG1        0.0000
     44 H          -1.4409    2.7745   -0.6317 H       1  LIG1        0.0000
     45 H          -0.8707   -0.5228    0.0034 H       1  LIG1        0.0000
     46 H           1.2194   -1.6798   -0.0251 H       1  LIG1        0.0000
     47 H           3.2803   -0.4703   -0.0365 H       1  LIG1        0.0000
     48 H           3.5776    3.1242   -0.0144 H       1  LIG1        0.0000
     49 H           4.9209    0.8348   -0.8600 H       1  LIG1        0.0000
     50 H           4.9367    0.8234    0.7729 H       1  LIG1        0.0000
     51 H          10.2719    4.5402   -0.2518 H       1  LIG1        0.0000
     52 H          12.4897    5.4295   -0.0639 H       1  LIG1        0.0000
     53 H          15.3552    3.5493    1.1539 H       1  LIG1        0.0000
     54 H          15.0556    4.5438   -0.1063 H       1  LIG1        0.0000
     55 H          14.7306    5.0351    1.4168 H       1  LIG1        0.0000
     56 H          13.8320    1.7933    1.3988 H       1  LIG1        0.0000
     57 H          11.6176    0.8960    1.2141 H       1  LIG1        0.0000
     58 H           8.8701    0.6197    1.7152 H       1  LIG1        0.0000
     59 H           9.7261    0.0363    0.4528 H       1  LIG1        0.0000
     60 H           6.4299   -1.9147   -0.7007 H       1  LIG1        0.0000
     61 H           4.8584   -2.8104    1.1947 H       1  LIG1        0.0000
     62 H           4.9930   -1.1366    3.1048 H       1  LIG1        0.0000
     63 H           2.0888    3.9595    0.0060 H       1  LIG1        0.0000
     64 H           0.6668    3.9458   -0.7967 H       1  LIG1        0.0000
     65 H           0.6828    3.9341    0.8362 H       1  LIG1        0.0000
@<TRIPOS>BOND
     1     1     2    1
     2     2     3    1
     3     3     4    1
     4     4     5    2
     5     4     6    2
     6     4     7    1
     7     7     8    1
     8     8     9   ar
     9     9    10   ar
    10    10    11   ar
    11    11    12   ar
    12    12    13    1
    13    13    14    1
    14    14    15    1
    15    15    16    2
    16    15    17   am
    17    17    18    1
    18    18    19    2
    19    19    20    1
    20    20    21   ar
    21    21    22   ar
    22    22    23   ar
    23    23    24    1
    24    23    25   ar
    25    25    26   ar
    26    26    20   ar
    27    19    27    1
    28    27    28    1
    29    28    17    1
    30    28    29    1
    31    29    30    2
    32    30    31    1
    33    31    32    2
    34    32    33    1
    35    33    29    1
    36    12    34   ar
    37    34     8   ar
    38    34    35    1
    39    28    36    1
    40     1    37    1
    41     1    38    1
    42     1    39    1
    43     2    40    1
    44     2    41    1
    45     3    42    1
    46     3    43    1
    47     7    44    1
    48     9    45    1
    49    10    46    1
    50    11    47    1
    51    13    48    1
    52    14    49    1
    53    14    50    1
    54    21    51    1
    55    22    52    1
    56    24    53    1
    57    24    54    1
    58    24    55    1
    59    25    56    1
    60    26    57    1
    61    27    58    1
    62    27    59    1
    63    30    60    1
    64    31    61    1
    65    32    62    1
    66    35    63    1
    67    35    64    1
    68    35    65    1
