@<TRIPOS>MOLECULE
*****
 65 68 0 0 0
SMALL
USER_CHARGES

@<TRIPOS>ATOM
      1 C1         -2.5801    2.2439   -5.0951 C.3     1  LIG1        0.0000
      2 C2         -2.9974    1.7935   -3.7046 C.3     1  LIG1        0.0000
      3 C3         -1.9179    2.1727   -2.7040 C.3     1  LIG1        0.0000
      4 S4         -2.4148    1.6364   -1.0482 S.O2    1  LIG1        0.0000
      5 O5         -2.5960    0.2078   -1.0406 O.2     1  LIG1        0.0000
      6 O6         -3.6517    2.2790   -0.6865 O.2     1  LIG1        0.0000
      7 N7         -1.2572    2.0430    0.0248 N.pl3   1  LIG1        0.0000
      8 C8         -0.0235    1.3809    0.0083 C.3     1  LIG1        0.0000
      9 C9         -0.0122   -0.0101   -0.0015 C.3     1  LIG1        0.0000
     10 C10         1.2069   -0.6799   -0.0180 C.3     1  LIG1        0.0000
     11 C11         2.4089    0.0202   -0.0247 C.3     1  LIG1        0.0000
     12 C12         2.3838    1.4109   -0.0148 C.3     1  LIG1        0.0000
     13 N13         3.5885    2.1243   -0.0215 N.pl3   1  LIG1        0.0000
     14 C14         4.5346    1.9588   -1.1344 C.3     1  LIG1        0.0000
     15 C15         4.2215    2.9746   -2.2209 C.2     1  LIG1        0.0000
     16 O16         3.3128    3.7453   -2.0779 O.2     1  LIG1        0.0000
     17 N17         4.9928    3.0112   -3.3878 N.am    1  LIG1        0.0000
     18 N18         4.8126    3.8602   -4.4135 N.2     1  LIG1        0.0000
     19 C19         5.8652    3.9719   -5.0963 C.2     1  LIG1        0.0000
     20 C20         6.0176    4.7949   -6.2800 C.3     1  LIG1        0.0000
     21 C21         4.9368    5.5418   -6.7373 C.3     1  LIG1        0.0000
     22 C22         5.0877    6.3297   -7.8737 C.3     1  LIG1        0.0000
     23 C23         6.3083    6.3635   -8.5392 C.3     1  LIG1        0.0000
     24 C24         6.4643    7.2266   -9.7798 C.3     1  LIG1        0.0000
     25 C25         7.3846    5.6141   -8.0742 C.3     1  LIG1        0.0000
     26 C26         7.2426    4.8236   -6.9389 C.3     1  LIG1        0.0000
     27 C27         6.9541    3.1206   -4.4874 C.3     1  LIG1        0.0000
     28 C28         6.1281    2.1409   -3.6845 C.3     1  LIG1        0.0000
     29 C29         6.8775    1.7320   -2.4278 C.2     1  LIG1        0.0000
     30 C30         7.2123    0.4523   -2.1035 C.2     1  LIG1        0.0000
     31 C31         7.8857    0.5540   -0.8650 C.2     1  LIG1        0.0000
     32 C32         7.9025    1.8763   -0.5383 C.2     1  LIG1        0.0000
     33 O33         7.2988    2.5509   -1.4902 O.2     1  LIG1        0.0000
     34 C34         1.1717    2.0931    0.0017 C.3     1  LIG1        0.0000
     35 C35         1.1507    3.6131    0.0128 C.3     1  LIG1        0.0000
     36 H           5.8566    1.3482   -4.2303 H       1  LIG1        0.0000
     37 H          -3.2903    1.9945   -5.7534 H       1  LIG1        0.0000
     38 H          -2.4543    3.2360   -5.1004 H       1  LIG1        0.0000
     39 H          -1.7212    1.7977   -5.3463 H       1  LIG1        0.0000
     40 H          -3.8564    2.2398   -3.4534 H       1  LIG1        0.0000
     41 H          -3.1232    0.8015   -3.6993 H       1  LIG1        0.0000
     42 H          -1.0590    1.7264   -2.9551 H       1  LIG1        0.0000
     43 H          -1.7921    3.1647   -2.7093 H       1  LIG1        0.0000
     44 H          -1.4281    2.7652    0.6950 H       1  LIG1        0.0000
     45 H          -0.8707   -0.5228    0.0034 H       1  LIG1        0.0000
     46 H           1.2194   -1.6798   -0.0251 H       1  LIG1        0.0000
     47 H           3.2803   -0.4703   -0.0365 H       1  LIG1        0.0000
     48 H           3.8055    2.7464    0.7308 H       1  LIG1        0.0000
     49 H           4.4515    1.0349   -1.5080 H       1  LIG1        0.0000
     50 H           5.4672    2.1018   -0.8032 H       1  LIG1        0.0000
     51 H           4.0615    5.5126   -6.2547 H       1  LIG1        0.0000
     52 H           4.3185    6.8718   -8.2121 H       1  LIG1        0.0000
     53 H           7.3957    7.1375  -10.1329 H       1  LIG1        0.0000
     54 H           5.8133    6.9280  -10.4776 H       1  LIG1        0.0000
     55 H           6.2867    8.1824   -9.5454 H       1  LIG1        0.0000
     56 H           8.2602    5.6440   -8.5564 H       1  LIG1        0.0000
     57 H           8.0120    4.2821   -6.6001 H       1  LIG1        0.0000
     58 H           7.5590    3.6597   -3.9013 H       1  LIG1        0.0000
     59 H           7.4956    2.6576   -5.1892 H       1  LIG1        0.0000
     60 H           7.0230   -0.3781   -2.6274 H       1  LIG1        0.0000
     61 H           8.2740   -0.1980   -0.3324 H       1  LIG1        0.0000
     62 H           8.3069    2.2681    0.2881 H       1  LIG1        0.0000
     63 H           2.0888    3.9595    0.0060 H       1  LIG1        0.0000
     64 H           0.6668    3.9458   -0.7967 H       1  LIG1        0.0000
     65 H           0.6828    3.9341    0.8362 H       1  LIG1        0.0000
@<TRIPOS>BOND
     1     1     2    1
     2     2     3    1
     3     3     4    1
     4     4     5    2
     5     4     6    2
     6     4     7    1
     7     7     8    1
     8     8     9   ar
     9     9    10   ar
    10    10    11   ar
    11    11    12   ar
    12    12    13    1
    13    13    14    1
    14    14    15    1
    15    15    16    2
    16    15    17   am
    17    17    18    1
    18    18    19    2
    19    19    20    1
    20    20    21   ar
    21    21    22   ar
    22    22    23   ar
    23    23    24    1
    24    23    25   ar
    25    25    26   ar
    26    26    20   ar
    27    19    27    1
    28    27    28    1
    29    28    17    1
    30    28    29    1
    31    29    30    2
    32    30    31    1
    33    31    32    2
    34    32    33    1
    35    33    29    1
    36    12    34   ar
    37    34     8   ar
    38    34    35    1
    39    28    36    1
    40     1    37    1
    41     1    38    1
    42     1    39    1
    43     2    40    1
    44     2    41    1
    45     3    42    1
    46     3    43    1
    47     7    44    1
    48     9    45    1
    49    10    46    1
    50    11    47    1
    51    13    48    1
    52    14    49    1
    53    14    50    1
    54    21    51    1
    55    22    52    1
    56    24    53    1
    57    24    54    1
    58    24    55    1
    59    25    56    1
    60    26    57    1
    61    27    58    1
    62    27    59    1
    63    30    60    1
    64    31    61    1
    65    32    62    1
    66    35    63    1
    67    35    64    1
    68    35    65    1
