@<TRIPOS>MOLECULE
*****
 65 68 0 0 0
SMALL
USER_CHARGES

@<TRIPOS>ATOM
      1 C1         -2.5801    2.2439   -5.0951 C.3     1  LIG1        0.0000
      2 C2         -2.9974    1.7935   -3.7046 C.3     1  LIG1        0.0000
      3 C3         -1.9179    2.1727   -2.7040 C.3     1  LIG1        0.0000
      4 S4         -2.4148    1.6364   -1.0482 S.O2    1  LIG1        0.0000
      5 O5         -2.5960    0.2078   -1.0406 O.2     1  LIG1        0.0000
      6 O6         -3.6517    2.2790   -0.6865 O.2     1  LIG1        0.0000
      7 N7         -1.2572    2.0430    0.0248 N.pl3   1  LIG1        0.0000
      8 C8         -0.0235    1.3809    0.0083 C.3     1  LIG1        0.0000
      9 C9         -0.0122   -0.0101   -0.0015 C.3     1  LIG1        0.0000
     10 C10         1.2069   -0.6799   -0.0180 C.3     1  LIG1        0.0000
     11 C11         2.4089    0.0202   -0.0247 C.3     1  LIG1        0.0000
     12 C12         2.3838    1.4109   -0.0148 C.3     1  LIG1        0.0000
     13 N13         3.5885    2.1243   -0.0215 N.pl3   1  LIG1        0.0000
     14 C14         4.8695    1.4034   -0.0390 C.3     1  LIG1        0.0000
     15 C15         5.2972    1.1649   -1.4780 C.2     1  LIG1        0.0000
     16 O16         4.6088    1.5538   -2.3807 O.2     1  LIG1        0.0000
     17 N17         6.4935    0.4921   -1.7500 N.am    1  LIG1        0.0000
     18 N18         6.9740    0.2235   -2.9756 N.2     1  LIG1        0.0000
     19 C19         8.2167    0.0210   -2.9381 C.2     1  LIG1        0.0000
     20 C20         9.0510   -0.3073   -4.0774 C.3     1  LIG1        0.0000
     21 C21         8.4739   -0.4186   -5.3381 C.3     1  LIG1        0.0000
     22 C22         9.2784   -0.7340   -6.4282 C.3     1  LIG1        0.0000
     23 C23        10.6429   -0.9352   -6.2501 C.3     1  LIG1        0.0000
     24 C24        11.5142   -1.2798   -7.4461 C.3     1  LIG1        0.0000
     25 C25        11.2121   -0.8209   -4.9855 C.3     1  LIG1        0.0000
     26 C26        10.4153   -0.5059   -3.8902 C.3     1  LIG1        0.0000
     27 C27         8.7112    0.1809   -1.5200 C.3     1  LIG1        0.0000
     28 C28         7.4258   -0.0231   -0.7501 C.3     1  LIG1        0.0000
     29 C29         7.4329    0.8216    0.5126 C.2     1  LIG1        0.0000
     30 C30         7.3053    0.3317    1.7769 C.2     1  LIG1        0.0000
     31 C31         7.3641    1.4676    2.6160 C.2     1  LIG1        0.0000
     32 C32         7.5183    2.5471    1.7998 C.2     1  LIG1        0.0000
     33 O33         7.5600    2.1289    0.5552 O.2     1  LIG1        0.0000
     34 C34         1.1717    2.0931    0.0017 C.3     1  LIG1        0.0000
     35 C35         1.1507    3.6131    0.0128 C.3     1  LIG1        0.0000
     36 H           7.2610   -0.9891   -0.5506 H       1  LIG1        0.0000
     37 H          -3.2903    1.9945   -5.7534 H       1  LIG1        0.0000
     38 H          -2.4543    3.2360   -5.1004 H       1  LIG1        0.0000
     39 H          -1.7212    1.7977   -5.3463 H       1  LIG1        0.0000
     40 H          -3.8564    2.2398   -3.4534 H       1  LIG1        0.0000
     41 H          -3.1232    0.8015   -3.6993 H       1  LIG1        0.0000
     42 H          -1.0590    1.7264   -2.9551 H       1  LIG1        0.0000
     43 H          -1.7921    3.1647   -2.7093 H       1  LIG1        0.0000
     44 H          -1.4281    2.7652    0.6950 H       1  LIG1        0.0000
     45 H          -0.8707   -0.5228    0.0034 H       1  LIG1        0.0000
     46 H           1.2194   -1.6798   -0.0251 H       1  LIG1        0.0000
     47 H           3.2803   -0.4703   -0.0365 H       1  LIG1        0.0000
     48 H           3.5776    3.1242   -0.0144 H       1  LIG1        0.0000
     49 H           4.7641    0.5251    0.4273 H       1  LIG1        0.0000
     50 H           5.5650    1.9482    0.4295 H       1  LIG1        0.0000
     51 H           7.4920   -0.2734   -5.4595 H       1  LIG1        0.0000
     52 H           8.8756   -0.8162   -7.3398 H       1  LIG1        0.0000
     53 H          12.4620   -1.3906   -7.1471 H       1  LIG1        0.0000
     54 H          11.1928   -2.1324   -7.8581 H       1  LIG1        0.0000
     55 H          11.4613   -0.5431   -8.1203 H       1  LIG1        0.0000
     56 H          12.1942   -0.9652   -4.8644 H       1  LIG1        0.0000
     57 H          10.8182   -0.4230   -2.9787 H       1  LIG1        0.0000
     58 H           9.0937    1.0916   -1.3637 H       1  LIG1        0.0000
     59 H           9.3939   -0.5118   -1.2875 H       1  LIG1        0.0000
     60 H           7.1942   -0.6234    2.0517 H       1  LIG1        0.0000
     61 H           7.3041    1.4768    3.6142 H       1  LIG1        0.0000
     62 H           7.5881    3.4990    2.0982 H       1  LIG1        0.0000
     63 H           2.0888    3.9595    0.0060 H       1  LIG1        0.0000
     64 H           0.6668    3.9458   -0.7967 H       1  LIG1        0.0000
     65 H           0.6828    3.9341    0.8362 H       1  LIG1        0.0000
@<TRIPOS>BOND
     1     1     2    1
     2     2     3    1
     3     3     4    1
     4     4     5    2
     5     4     6    2
     6     4     7    1
     7     7     8    1
     8     8     9   ar
     9     9    10   ar
    10    10    11   ar
    11    11    12   ar
    12    12    13    1
    13    13    14    1
    14    14    15    1
    15    15    16    2
    16    15    17   am
    17    17    18    1
    18    18    19    2
    19    19    20    1
    20    20    21   ar
    21    21    22   ar
    22    22    23   ar
    23    23    24    1
    24    23    25   ar
    25    25    26   ar
    26    26    20   ar
    27    19    27    1
    28    27    28    1
    29    28    17    1
    30    28    29    1
    31    29    30    2
    32    30    31    1
    33    31    32    2
    34    32    33    1
    35    33    29    1
    36    12    34   ar
    37    34     8   ar
    38    34    35    1
    39    28    36    1
    40     1    37    1
    41     1    38    1
    42     1    39    1
    43     2    40    1
    44     2    41    1
    45     3    42    1
    46     3    43    1
    47     7    44    1
    48     9    45    1
    49    10    46    1
    50    11    47    1
    51    13    48    1
    52    14    49    1
    53    14    50    1
    54    21    51    1
    55    22    52    1
    56    24    53    1
    57    24    54    1
    58    24    55    1
    59    25    56    1
    60    26    57    1
    61    27    58    1
    62    27    59    1
    63    30    60    1
    64    31    61    1
    65    32    62    1
    66    35    63    1
    67    35    64    1
    68    35    65    1
