@<TRIPOS>MOLECULE

  30   32
SMALL
USER_CHARGES
@<TRIPOS>ATOM
   1 F1           2.9698     6.5678    -0.1938 F            1    LIG   0.0000
   2 C2           1.8995     5.8165     0.0934 C.ar         1    LIG   0.0000
   3 N3           1.9475     4.4780    -0.0098 N.ar         1    LIG   0.0000
   4 C4           0.8886     3.7012     0.2718 C.ar         1    LIG   0.0000
   5 C5           1.0228     2.2635     0.1327 C.2          1    LIG   0.0000
   6 C6          -0.0324     1.5274    -0.1873 C.2          1    LIG   0.0000
   7 C7           0.0693     0.0205    -0.3761 C.3          1    LIG   0.0000
   8 C8           1.3283    -0.5447     0.2583 C.3          1    LIG   0.0000
   9 C9           1.4563    -2.0089    -0.1297 C.3          1    LIG   0.0000
  10 F10          1.4657    -2.1170    -1.4553 F            1    LIG   0.0000
  11 F11          2.5893    -2.5008     0.3633 F            1    LIG   0.0000
  12 F12          0.4257    -2.6899     0.3633 F            1    LIG   0.0000
  13 C13          2.4983     0.2632    -0.2789 C.3          1    LIG   0.0000
  14 C14          2.3914     1.6385     0.3594 C.3          1    LIG   0.0000
  15 C15         -0.3205     4.2501     0.6897 C.ar         1    LIG   0.0000
  16 N16         -1.5495     3.7757     1.0480 N.pl3        1    LIG   0.0000
  17 C17         -2.3363     4.8425     1.3694 C.2          1    LIG   0.0000
  18 N18         -1.6168     5.9300     1.2130 N.2          1    LIG   0.0000
  19 C19         -0.3555     5.6186     0.7890 C.ar         1    LIG   0.0000
  20 N20          0.7331     6.3535     0.4960 N.ar         1    LIG   0.0000
  21 H            1.2796    -0.4570     1.2533 H            1    LIG   0.0000
  22 H           -1.8247     2.8146     1.0707 H            1    LIG   0.0000
  23 H           -0.9189     1.9742    -0.3079 H            1    LIG   0.0000
  24 H            0.0810    -0.1829    -1.3551 H            1    LIG   0.0000
  25 H           -0.7276    -0.4128     0.0449 H            1    LIG   0.0000
  26 H            2.4404     0.3375    -1.2745 H            1    LIG   0.0000
  27 H            3.3637    -0.1699    -0.0268 H            1    LIG   0.0000
  28 H            2.5483     1.5516     1.3432 H            1    LIG   0.0000
  29 H            3.0890     2.2347    -0.0380 H            1    LIG   0.0000
  30 H           -3.2893     4.8036     1.6700 H            1    LIG   0.0000
@<TRIPOS>BOND
   1        1        2 1
   2        2        3 ar
   3        3        4 ar
   4        4        5 1
   5        5        6 2
   6        6        7 1
   7        7        8 1
   8        8        9 1
   9        9       10 1
  10        9       11 1
  11        9       12 1
  12        8       13 1
  13       13       14 1
  14       14        5 1
  15        4       15 ar
  16       15       16 1
  17       16       17 1
  18       17       18 2
  19       18       19 1
  20       19       15 ar
  21       19       20 ar
  22       20        2 ar
  23        8       21 1
  24       16       22 1
  25        6       23 1
  26        7       24 1
  27        7       25 1
  28       13       26 1
  29       13       27 1
  30       14       28 1
  31       14       29 1
  32       17       30 1

@<TRIPOS>MOLECULE

  30   32
SMALL
USER_CHARGES
@<TRIPOS>ATOM
   1 F1           2.4467     6.2893     2.1797 F            1    LIG   0.0000
   2 C2           1.6311     5.6733     1.3149 C.ar         1    LIG   0.0000
   3 N3           1.6945     4.3438     1.1330 N.ar         1    LIG   0.0000
   4 C4           0.8886     3.7012     0.2718 C.ar         1    LIG   0.0000
   5 C5           1.0228     2.2635     0.1327 C.2          1    LIG   0.0000
   6 C6          -0.0324     1.5274    -0.1873 C.2          1    LIG   0.0000
   7 C7           0.0693     0.0205    -0.3761 C.3          1    LIG   0.0000
   8 C8           1.3283    -0.5447     0.2583 C.3          1    LIG   0.0000
   9 C9           1.4563    -2.0089    -0.1297 C.3          1    LIG   0.0000
  10 F10          1.4657    -2.1170    -1.4553 F            1    LIG   0.0000
  11 F11          2.5893    -2.5008     0.3633 F            1    LIG   0.0000
  12 F12          0.4257    -2.6899     0.3633 F            1    LIG   0.0000
  13 C13          2.4983     0.2632    -0.2789 C.3          1    LIG   0.0000
  14 C14          2.3914     1.6385     0.3594 C.3          1    LIG   0.0000
  15 C15         -0.0611     4.3875    -0.4797 C.ar         1    LIG   0.0000
  16 N16         -1.0077     4.0640    -1.4089 N.pl3        1    LIG   0.0000
  17 C17         -1.6420     5.2122    -1.7824 C.2          1    LIG   0.0000
  18 N18         -1.1037     6.2025    -1.1082 N.2          1    LIG   0.0000
  19 C19         -0.1135     5.7451    -0.2849 C.ar         1    LIG   0.0000
  20 N20          0.7156     6.3427     0.5905 N.ar         1    LIG   0.0000
  21 H            1.2796    -0.4570     1.2533 H            1    LIG   0.0000
  22 H           -1.2019     3.1461    -1.7550 H            1    LIG   0.0000
  23 H           -0.9189     1.9742    -0.3079 H            1    LIG   0.0000
  24 H            0.0810    -0.1829    -1.3551 H            1    LIG   0.0000
  25 H           -0.7276    -0.4128     0.0449 H            1    LIG   0.0000
  26 H            2.4404     0.3375    -1.2745 H            1    LIG   0.0000
  27 H            3.3637    -0.1699    -0.0268 H            1    LIG   0.0000
  28 H            2.5483     1.5516     1.3432 H            1    LIG   0.0000
  29 H            3.0890     2.2347    -0.0380 H            1    LIG   0.0000
  30 H           -2.3833     5.2867    -2.4494 H            1    LIG   0.0000
@<TRIPOS>BOND
   1        1        2 1
   2        2        3 ar
   3        3        4 ar
   4        4        5 1
   5        5        6 2
   6        6        7 1
   7        7        8 1
   8        8        9 1
   9        9       10 1
  10        9       11 1
  11        9       12 1
  12        8       13 1
  13       13       14 1
  14       14        5 1
  15        4       15 ar
  16       15       16 1
  17       16       17 1
  18       17       18 2
  19       18       19 1
  20       19       15 ar
  21       19       20 ar
  22       20        2 ar
  23        8       21 1
  24       16       22 1
  25        6       23 1
  26        7       24 1
  27        7       25 1
  28       13       26 1
  29       13       27 1
  30       14       28 1
  31       14       29 1
  32       17       30 1

@<TRIPOS>MOLECULE

  30   32
SMALL
USER_CHARGES
@<TRIPOS>ATOM
   1 F1           1.1711     6.5605    -1.8519 F            1    LIG   0.0000
   2 C2           0.9735     5.8126    -0.7591 C.ar         1    LIG   0.0000
   3 N3           1.0820     4.4746    -0.8091 N.ar         1    LIG   0.0000
   4 C4           0.8886     3.7012     0.2718 C.ar         1    LIG   0.0000
   5 C5           1.0228     2.2635     0.1327 C.2          1    LIG   0.0000
   6 C6          -0.0324     1.5274    -0.1873 C.2          1    LIG   0.0000
   7 C7           0.0693     0.0205    -0.3761 C.3          1    LIG   0.0000
   8 C8           1.3283    -0.5447     0.2583 C.3          1    LIG   0.0000
   9 C9           1.4563    -2.0089    -0.1297 C.3          1    LIG   0.0000
  10 F10          1.4657    -2.1170    -1.4553 F            1    LIG   0.0000
  11 F11          2.5893    -2.5008     0.3633 F            1    LIG   0.0000
  12 F12          0.4257    -2.6899     0.3633 F            1    LIG   0.0000
  13 C13          2.4983     0.2632    -0.2789 C.3          1    LIG   0.0000
  14 C14          2.3914     1.6385     0.3594 C.3          1    LIG   0.0000
  15 C15          0.5650     4.2535     1.5080 C.ar         1    LIG   0.0000
  16 N16          0.3123     3.7833     2.7645 N.pl3        1    LIG   0.0000
  17 C17          0.0525     4.8523     3.5708 C.2          1    LIG   0.0000
  18 N18          0.1417     5.9370     2.8358 N.2          1    LIG   0.0000
  19 C19          0.4558     5.6212     1.5438 C.ar         1    LIG   0.0000
  20 N20          0.6599     6.3528     0.4329 N.ar         1    LIG   0.0000
  21 H            1.2796    -0.4570     1.2533 H            1    LIG   0.0000
  22 H            0.3168     2.8233     3.0447 H            1    LIG   0.0000
  23 H           -0.9189     1.9742    -0.3079 H            1    LIG   0.0000
  24 H            0.0810    -0.1829    -1.3551 H            1    LIG   0.0000
  25 H           -0.7276    -0.4128     0.0449 H            1    LIG   0.0000
  26 H            2.4404     0.3375    -1.2745 H            1    LIG   0.0000
  27 H            3.3637    -0.1699    -0.0268 H            1    LIG   0.0000
  28 H            2.5483     1.5516     1.3432 H            1    LIG   0.0000
  29 H            3.0890     2.2347    -0.0380 H            1    LIG   0.0000
  30 H           -0.1664     4.8165     4.5459 H            1    LIG   0.0000
@<TRIPOS>BOND
   1        1        2 1
   2        2        3 ar
   3        3        4 ar
   4        4        5 1
   5        5        6 2
   6        6        7 1
   7        7        8 1
   8        8        9 1
   9        9       10 1
  10        9       11 1
  11        9       12 1
  12        8       13 1
  13       13       14 1
  14       14        5 1
  15        4       15 ar
  16       15       16 1
  17       16       17 1
  18       17       18 2
  19       18       19 1
  20       19       15 ar
  21       19       20 ar
  22       20        2 ar
  23        8       21 1
  24       16       22 1
  25        6       23 1
  26        7       24 1
  27        7       25 1
  28       13       26 1
  29       13       27 1
  30       14       28 1
  31       14       29 1
  32       17       30 1

@<TRIPOS>MOLECULE

  30   32
SMALL
USER_CHARGES
@<TRIPOS>ATOM
   1 F1           0.1247     6.0035     2.8951 F            1    LIG   0.0000
   2 C2           0.4367     5.5262     1.6837 C.ar         1    LIG   0.0000
   3 N3           0.5760     4.2063     1.4765 N.ar         1    LIG   0.0000
   4 C4           0.8886     3.7012     0.2718 C.ar         1    LIG   0.0000
   5 C5           1.0228     2.2635     0.1327 C.2          1    LIG   0.0000
   6 C6          -0.0324     1.5274    -0.1873 C.2          1    LIG   0.0000
   7 C7           0.0693     0.0205    -0.3761 C.3          1    LIG   0.0000
   8 C8           1.3283    -0.5447     0.2583 C.3          1    LIG   0.0000
   9 C9           1.4563    -2.0089    -0.1297 C.3          1    LIG   0.0000
  10 F10          1.4657    -2.1170    -1.4553 F            1    LIG   0.0000
  11 F11          2.5893    -2.5008     0.3633 F            1    LIG   0.0000
  12 F12          0.4257    -2.6899     0.3633 F            1    LIG   0.0000
  13 C13          2.4983     0.2632    -0.2789 C.3          1    LIG   0.0000
  14 C14          2.3914     1.6385     0.3594 C.3          1    LIG   0.0000
  15 C15          1.0837     4.5282    -0.8308 C.ar         1    LIG   0.0000
  16 N16          1.3959     4.3599    -2.1492 N.pl3        1    LIG   0.0000
  17 C17          1.4411     5.5918    -2.7328 C.2          1    LIG   0.0000
  18 N18          1.1677     6.4819    -1.8067 N.2          1    LIG   0.0000
  19 C19          0.9397     5.8742    -0.6041 C.ar         1    LIG   0.0000
  20 N20          0.6248     6.3312     0.6219 N.ar         1    LIG   0.0000
  21 H            1.2796    -0.4570     1.2533 H            1    LIG   0.0000
  22 H            1.5624     3.4864    -2.6068 H            1    LIG   0.0000
  23 H           -0.9189     1.9742    -0.3079 H            1    LIG   0.0000
  24 H            0.0810    -0.1829    -1.3551 H            1    LIG   0.0000
  25 H           -0.7276    -0.4128     0.0449 H            1    LIG   0.0000
  26 H            2.4404     0.3375    -1.2745 H            1    LIG   0.0000
  27 H            3.3637    -0.1699    -0.0268 H            1    LIG   0.0000
  28 H            2.5483     1.5516     1.3432 H            1    LIG   0.0000
  29 H            3.0890     2.2347    -0.0380 H            1    LIG   0.0000
  30 H            1.6455     5.7828    -3.6929 H            1    LIG   0.0000
@<TRIPOS>BOND
   1        1        2 1
   2        2        3 ar
   3        3        4 ar
   4        4        5 1
   5        5        6 2
   6        6        7 1
   7        7        8 1
   8        8        9 1
   9        9       10 1
  10        9       11 1
  11        9       12 1
  12        8       13 1
  13       13       14 1
  14       14        5 1
  15        4       15 ar
  16       15       16 1
  17       16       17 1
  18       17       18 2
  19       18       19 1
  20       19       15 ar
  21       19       20 ar
  22       20        2 ar
  23        8       21 1
  24       16       22 1
  25        6       23 1
  26        7       24 1
  27        7       25 1
  28       13       26 1
  29       13       27 1
  30       14       28 1
  31       14       29 1
  32       17       30 1

@<TRIPOS>MOLECULE

  30   32
SMALL
USER_CHARGES
@<TRIPOS>ATOM
   1 F1          -1.1508     6.2747    -1.1365 F            1    LIG   0.0000
   2 C2          -0.2210     5.6655    -0.3903 C.ar         1    LIG   0.0000
   3 N3          -0.0365     4.3371    -0.4656 N.ar         1    LIG   0.0000
   4 C4           0.8886     3.7012     0.2718 C.ar         1    LIG   0.0000
   5 C5           1.0228     2.2635     0.1327 C.2          1    LIG   0.0000
   6 C6          -0.0324     1.5274    -0.1873 C.2          1    LIG   0.0000
   7 C7           0.0693     0.0205    -0.3761 C.3          1    LIG   0.0000
   8 C8           1.3283    -0.5447     0.2583 C.3          1    LIG   0.0000
   9 C9           1.4563    -2.0089    -0.1297 C.3          1    LIG   0.0000
  10 F10          1.4657    -2.1170    -1.4553 F            1    LIG   0.0000
  11 F11          2.5893    -2.5008     0.3633 F            1    LIG   0.0000
  12 F12          0.4257    -2.6899     0.3633 F            1    LIG   0.0000
  13 C13          2.4983     0.2632    -0.2789 C.3          1    LIG   0.0000
  14 C14          2.3914     1.6385     0.3594 C.3          1    LIG   0.0000
  15 C15          1.7098     4.3943     1.1569 C.ar         1    LIG   0.0000
  16 N16          2.7159     4.0791     2.0242 N.pl3        1    LIG   0.0000
  17 C17          3.1356     5.2318     2.6204 C.2          1    LIG   0.0000
  18 N18          2.4131     6.2164     2.1373 N.2          1    LIG   0.0000
  19 C19          1.5091     5.7503     1.2246 C.ar         1    LIG   0.0000
  20 N20          0.5691     6.3413     0.4642 N.ar         1    LIG   0.0000
  21 H            1.2796    -0.4570     1.2533 H            1    LIG   0.0000
  22 H            3.0811     3.1636     2.1929 H            1    LIG   0.0000
  23 H           -0.9189     1.9742    -0.3079 H            1    LIG   0.0000
  24 H            0.0810    -0.1829    -1.3551 H            1    LIG   0.0000
  25 H           -0.7276    -0.4128     0.0449 H            1    LIG   0.0000
  26 H            2.4404     0.3375    -1.2745 H            1    LIG   0.0000
  27 H            3.3637    -0.1699    -0.0268 H            1    LIG   0.0000
  28 H            2.5483     1.5516     1.3432 H            1    LIG   0.0000
  29 H            3.0890     2.2347    -0.0380 H            1    LIG   0.0000
  30 H            3.8624     5.3127     3.3025 H            1    LIG   0.0000
@<TRIPOS>BOND
   1        1        2 1
   2        2        3 ar
   3        3        4 ar
   4        4        5 1
   5        5        6 2
   6        6        7 1
   7        7        8 1
   8        8        9 1
   9        9       10 1
  10        9       11 1
  11        9       12 1
  12        8       13 1
  13       13       14 1
  14       14        5 1
  15        4       15 ar
  16       15       16 1
  17       16       17 1
  18       17       18 2
  19       18       19 1
  20       19       15 ar
  21       19       20 ar
  22       20        2 ar
  23        8       21 1
  24       16       22 1
  25        6       23 1
  26        7       24 1
  27        7       25 1
  28       13       26 1
  29       13       27 1
  30       14       28 1
  31       14       29 1
  32       17       30 1

@<TRIPOS>MOLECULE

  30   32
SMALL
USER_CHARGES
@<TRIPOS>ATOM
   1 F1          -5.5519     1.2952    -1.7715 F            1    LIG   0.0000
   2 C2          -4.8194     0.3816    -1.1224 C.ar         1    LIG   0.0000
   3 N3          -3.4897     0.5250    -0.9966 N.ar         1    LIG   0.0000
   4 C4          -2.7318    -0.3764    -0.3509 C.ar         1    LIG   0.0000
   5 C5          -1.3019    -0.1481    -0.2615 C.2          1    LIG   0.0000
   6 C6          -0.5015    -1.1978    -0.2023 C.2          1    LIG   0.0000
   7 C7           0.9990    -0.9810    -0.0726 C.3          1    LIG   0.0000
   8 C8           1.2841     0.1591     0.8961 C.3          1    LIG   0.0000
   9 C9           2.7724     0.4654     0.8456 C.3          1    LIG   0.0000
  10 F10          3.0870     0.9392    -0.3567 F            1    LIG   0.0000
  11 F11          3.0700     1.3727     1.7715 F            1    LIG   0.0000
  12 F12          3.4623    -0.6477     1.0778 F            1    LIG   0.0000
  13 C13          0.5381     1.4532     0.5788 C.3          1    LIG   0.0000
  14 C14         -0.7468     1.2737    -0.2253 C.3          1    LIG   0.0000
  15 C15         -3.2924    -1.5126     0.2258 C.ar         1    LIG   0.0000
  16 N16         -2.8375    -2.5901     0.9301 N.pl3        1    LIG   0.0000
  17 C17         -3.9074    -3.3818     1.2280 C.2          1    LIG   0.0000
  18 N18         -4.9779    -2.8114     0.7243 N.2          1    LIG   0.0000
  19 C19         -4.6514    -1.6468     0.0881 C.ar         1    LIG   0.0000
  20 N20         -5.3675    -0.7152    -0.5677 N.ar         1    LIG   0.0000
  21 H            1.0448    -0.1344     1.8216 H            1    LIG   0.0000
  22 H           -1.8865    -2.7677     1.1832 H            1    LIG   0.0000
  23 H           -0.8773    -2.1236    -0.2422 H            1    LIG   0.0000
  24 H            1.3788    -0.7551    -0.9696 H            1    LIG   0.0000
  25 H            1.4254    -1.8187     0.2686 H            1    LIG   0.0000
  26 H            1.1516     2.0452     0.0561 H            1    LIG   0.0000
  27 H            0.3038     1.8968     1.4439 H            1    LIG   0.0000
  28 H           -1.4457     1.8680     0.1727 H            1    LIG   0.0000
  29 H           -0.5642     1.5579    -1.1666 H            1    LIG   0.0000
  30 H           -3.8815    -4.2415     1.7381 H            1    LIG   0.0000
@<TRIPOS>BOND
   1        1        2 1
   2        2        3 ar
   3        3        4 ar
   4        4        5 1
   5        5        6 2
   6        6        7 1
   7        7        8 1
   8        8        9 1
   9        9       10 1
  10        9       11 1
  11        9       12 1
  12        8       13 1
  13       13       14 1
  14       14        5 1
  15        4       15 ar
  16       15       16 1
  17       16       17 1
  18       17       18 2
  19       18       19 1
  20       19       15 ar
  21       19       20 ar
  22       20        2 ar
  23        8       21 1
  24       16       22 1
  25        6       23 1
  26        7       24 1
  27        7       25 1
  28       13       26 1
  29       13       27 1
  30       14       28 1
  31       14       29 1
  32       17       30 1

@<TRIPOS>MOLECULE

  30   32
SMALL
USER_CHARGES
@<TRIPOS>ATOM
   1 F1          -5.7079     1.3164     0.6698 F            1    LIG   0.0000
   2 C2          -4.8998     0.3933     0.1337 C.ar         1    LIG   0.0000
   3 N3          -3.5647     0.5342     0.1791 N.ar         1    LIG   0.0000
   4 C4          -2.7318    -0.3764    -0.3509 C.ar         1    LIG   0.0000
   5 C5          -1.3019    -0.1481    -0.2615 C.2          1    LIG   0.0000
   6 C6          -0.5015    -1.1978    -0.2023 C.2          1    LIG   0.0000
   7 C7           0.9990    -0.9810    -0.0726 C.3          1    LIG   0.0000
   8 C8           1.2841     0.1591     0.8961 C.3          1    LIG   0.0000
   9 C9           2.7724     0.4654     0.8456 C.3          1    LIG   0.0000
  10 F10          3.0870     0.9392    -0.3567 F            1    LIG   0.0000
  11 F11          3.0700     1.3727     1.7715 F            1    LIG   0.0000
  12 F12          3.4623    -0.6477     1.0778 F            1    LIG   0.0000
  13 C13          0.5381     1.4532     0.5788 C.3          1    LIG   0.0000
  14 C14         -0.7468     1.2737    -0.2253 C.3          1    LIG   0.0000
  15 C15         -3.2157    -1.5215    -0.9774 C.ar         1    LIG   0.0000
  16 N16         -2.6760    -2.6118    -1.5970 N.pl3        1    LIG   0.0000
  17 C17         -3.7001    -3.4104    -2.0137 C.2          1    LIG   0.0000
  18 N18         -4.8254    -2.8308    -1.6635 N.2          1    LIG   0.0000
  19 C19         -4.5815    -1.6514    -1.0177 C.ar         1    LIG   0.0000
  20 N20         -5.3742    -0.7112    -0.4713 N.ar         1    LIG   0.0000
  21 H            1.0448    -0.1344     1.8216 H            1    LIG   0.0000
  22 H           -1.7007    -2.7931    -1.7232 H            1    LIG   0.0000
  23 H           -0.8773    -2.1236    -0.2422 H            1    LIG   0.0000
  24 H            1.3788    -0.7551    -0.9696 H            1    LIG   0.0000
  25 H            1.4254    -1.8187     0.2686 H            1    LIG   0.0000
  26 H            1.1516     2.0452     0.0561 H            1    LIG   0.0000
  27 H            0.3038     1.8968     1.4439 H            1    LIG   0.0000
  28 H           -1.4457     1.8680     0.1727 H            1    LIG   0.0000
  29 H           -0.5642     1.5579    -1.1666 H            1    LIG   0.0000
  30 H           -3.6104    -4.2804    -2.4985 H            1    LIG   0.0000
@<TRIPOS>BOND
   1        1        2 1
   2        2        3 ar
   3        3        4 ar
   4        4        5 1
   5        5        6 2
   6        6        7 1
   7        7        8 1
   8        8        9 1
   9        9       10 1
  10        9       11 1
  11        9       12 1
  12        8       13 1
  13       13       14 1
  14       14        5 1
  15        4       15 ar
  16       15       16 1
  17       16       17 1
  18       17       18 2
  19       18       19 1
  20       19       15 ar
  21       19       20 ar
  22       20        2 ar
  23        8       21 1
  24       16       22 1
  25        6       23 1
  26        7       24 1
  27        7       25 1
  28       13       26 1
  29       13       27 1
  30       14       28 1
  31       14       29 1
  32       17       30 1

@<TRIPOS>MOLECULE

  30   32
SMALL
USER_CHARGES
@<TRIPOS>ATOM
   1 F1          -5.1422    -0.8075    -2.9528 F            1    LIG   0.0000
   2 C2          -4.6086    -0.7007    -1.7295 C.ar         1    LIG   0.0000
   3 N3          -3.2924    -0.4871    -1.5664 N.ar         1    LIG   0.0000
   4 C4          -2.7318    -0.3764    -0.3509 C.ar         1    LIG   0.0000
   5 C5          -1.3019    -0.1481    -0.2615 C.2          1    LIG   0.0000
   6 C6          -0.5015    -1.1978    -0.2023 C.2          1    LIG   0.0000
   7 C7           0.9990    -0.9810    -0.0726 C.3          1    LIG   0.0000
   8 C8           1.2841     0.1591     0.8961 C.3          1    LIG   0.0000
   9 C9           2.7724     0.4654     0.8456 C.3          1    LIG   0.0000
  10 F10          3.0870     0.9392    -0.3567 F            1    LIG   0.0000
  11 F11          3.0700     1.3727     1.7715 F            1    LIG   0.0000
  12 F12          3.4623    -0.6477     1.0778 F            1    LIG   0.0000
  13 C13          0.5381     1.4532     0.5788 C.3          1    LIG   0.0000
  14 C14         -0.7468     1.2737    -0.2253 C.3          1    LIG   0.0000
  15 C15         -3.4943    -0.4770     0.8094 C.ar         1    LIG   0.0000
  16 N16         -3.2616    -0.4135     2.1532 N.pl3        1    LIG   0.0000
  17 C17         -4.4515    -0.5893     2.7962 C.2          1    LIG   0.0000
  18 N18         -5.3785    -0.7553     1.8809 N.2          1    LIG   0.0000
  19 C19         -4.8368    -0.6969     0.6277 C.ar         1    LIG   0.0000
  20 N20         -5.3512    -0.7999    -0.6116 N.ar         1    LIG   0.0000
  21 H            1.0448    -0.1344     1.8216 H            1    LIG   0.0000
  22 H           -2.3742    -0.2643     2.5895 H            1    LIG   0.0000
  23 H           -0.8773    -2.1236    -0.2422 H            1    LIG   0.0000
  24 H            1.3788    -0.7551    -0.9696 H            1    LIG   0.0000
  25 H            1.4254    -1.8187     0.2686 H            1    LIG   0.0000
  26 H            1.1516     2.0452     0.0561 H            1    LIG   0.0000
  27 H            0.3038     1.8968     1.4439 H            1    LIG   0.0000
  28 H           -1.4457     1.8680     0.1727 H            1    LIG   0.0000
  29 H           -0.5642     1.5579    -1.1666 H            1    LIG   0.0000
  30 H           -4.5925    -0.5914     3.7862 H            1    LIG   0.0000
@<TRIPOS>BOND
   1        1        2 1
   2        2        3 ar
   3        3        4 ar
   4        4        5 1
   5        5        6 2
   6        6        7 1
   7        7        8 1
   8        8        9 1
   9        9       10 1
  10        9       11 1
  11        9       12 1
  12        8       13 1
  13       13       14 1
  14       14        5 1
  15        4       15 ar
  16       15       16 1
  17       16       17 1
  18       17       18 2
  19       18       19 1
  20       19       15 ar
  21       19       20 ar
  22       20        2 ar
  23        8       21 1
  24       16       22 1
  25        6       23 1
  26        7       24 1
  27        7       25 1
  28       13       26 1
  29       13       27 1
  30       14       28 1
  31       14       29 1
  32       17       30 1

@<TRIPOS>MOLECULE

  30   32
SMALL
USER_CHARGES
@<TRIPOS>ATOM
   1 F1          -5.4543    -0.7651     1.9298 F            1    LIG   0.0000
   2 C2          -4.7695    -0.6773     0.7828 C.ar         1    LIG   0.0000
   3 N3          -3.4424    -0.4688     0.7850 N.ar         1    LIG   0.0000
   4 C4          -2.7318    -0.3764    -0.3509 C.ar         1    LIG   0.0000
   5 C5          -1.3019    -0.1481    -0.2615 C.2          1    LIG   0.0000
   6 C6          -0.5015    -1.1978    -0.2023 C.2          1    LIG   0.0000
   7 C7           0.9990    -0.9810    -0.0726 C.3          1    LIG   0.0000
   8 C8           1.2841     0.1591     0.8961 C.3          1    LIG   0.0000
   9 C9           2.7724     0.4654     0.8456 C.3          1    LIG   0.0000
  10 F10          3.0870     0.9392    -0.3567 F            1    LIG   0.0000
  11 F11          3.0700     1.3727     1.7715 F            1    LIG   0.0000
  12 F12          3.4623    -0.6477     1.0778 F            1    LIG   0.0000
  13 C13          0.5381     1.4532     0.5788 C.3          1    LIG   0.0000
  14 C14         -0.7468     1.2737    -0.2253 C.3          1    LIG   0.0000
  15 C15         -3.3409    -0.4949    -1.5970 C.ar         1    LIG   0.0000
  16 N16         -2.9385    -0.4570    -2.9011 N.pl3        1    LIG   0.0000
  17 C17         -4.0368    -0.6466    -3.6873 C.2          1    LIG   0.0000
  18 N18         -5.0737    -0.7942    -2.8948 N.2          1    LIG   0.0000
  19 C19         -4.6970    -0.7060    -1.5841 C.ar         1    LIG   0.0000
  20 N20         -5.3646    -0.7918    -0.4188 N.ar         1    LIG   0.0000
  21 H            1.0448    -0.1344     1.8216 H            1    LIG   0.0000
  22 H           -2.0026    -0.3150    -3.2234 H            1    LIG   0.0000
  23 H           -0.8773    -2.1236    -0.2422 H            1    LIG   0.0000
  24 H            1.3788    -0.7551    -0.9696 H            1    LIG   0.0000
  25 H            1.4254    -1.8187     0.2686 H            1    LIG   0.0000
  26 H            1.1516     2.0452     0.0561 H            1    LIG   0.0000
  27 H            0.3038     1.8968     1.4439 H            1    LIG   0.0000
  28 H           -1.4457     1.8680     0.1727 H            1    LIG   0.0000
  29 H           -0.5642     1.5579    -1.1666 H            1    LIG   0.0000
  30 H           -4.0502    -0.6692    -4.6869 H            1    LIG   0.0000
@<TRIPOS>BOND
   1        1        2 1
   2        2        3 ar
   3        3        4 ar
   4        4        5 1
   5        5        6 2
   6        6        7 1
   7        7        8 1
   8        8        9 1
   9        9       10 1
  10        9       11 1
  11        9       12 1
  12        8       13 1
  13       13       14 1
  14       14        5 1
  15        4       15 ar
  16       15       16 1
  17       16       17 1
  18       17       18 2
  19       18       19 1
  20       19       15 ar
  21       19       20 ar
  22       20        2 ar
  23        8       21 1
  24       16       22 1
  25        6       23 1
  26        7       24 1
  27        7       25 1
  28       13       26 1
  29       13       27 1
  30       14       28 1
  31       14       29 1
  32       17       30 1

@<TRIPOS>MOLECULE

  30   32
SMALL
USER_CHARGES
@<TRIPOS>ATOM
   1 F1          -5.0446    -2.8678     0.7486 F            1    LIG   0.0000
   2 C2          -4.5587    -1.7596     0.1757 C.ar         1    LIG   0.0000
   3 N3          -3.2452    -1.4809     0.2152 N.ar         1    LIG   0.0000
   4 C4          -2.7318    -0.3764    -0.3509 C.ar         1    LIG   0.0000
   5 C5          -1.3019    -0.1481    -0.2615 C.2          1    LIG   0.0000
   6 C6          -0.5015    -1.1978    -0.2023 C.2          1    LIG   0.0000
   7 C7           0.9990    -0.9810    -0.0726 C.3          1    LIG   0.0000
   8 C8           1.2841     0.1591     0.8961 C.3          1    LIG   0.0000
   9 C9           2.7724     0.4654     0.8456 C.3          1    LIG   0.0000
  10 F10          3.0870     0.9392    -0.3567 F            1    LIG   0.0000
  11 F11          3.0700     1.3727     1.7715 F            1    LIG   0.0000
  12 F12          3.4623    -0.6477     1.0778 F            1    LIG   0.0000
  13 C13          0.5381     1.4532     0.5788 C.3          1    LIG   0.0000
  14 C14         -0.7468     1.2737    -0.2253 C.3          1    LIG   0.0000
  15 C15         -3.5428     0.5407    -1.0135 C.ar         1    LIG   0.0000
  16 N16         -3.3626     1.7196    -1.6781 N.pl3        1    LIG   0.0000
  17 C17         -4.5808     2.1458    -2.1191 C.2          1    LIG   0.0000
  18 N18         -5.4743     1.2618    -1.7382 N.2          1    LIG   0.0000
  19 C19         -4.8825     0.2439    -1.0446 C.ar         1    LIG   0.0000
  20 N20         -5.3483    -0.8764    -0.4626 N.ar         1    LIG   0.0000
  21 H            1.0448    -0.1344     1.8216 H            1    LIG   0.0000
  22 H           -2.4903     2.1884    -1.8171 H            1    LIG   0.0000
  23 H           -0.8773    -2.1236    -0.2422 H            1    LIG   0.0000
  24 H            1.3788    -0.7551    -0.9696 H            1    LIG   0.0000
  25 H            1.4254    -1.8187     0.2686 H            1    LIG   0.0000
  26 H            1.1516     2.0452     0.0561 H            1    LIG   0.0000
  27 H            0.3038     1.8968     1.4439 H            1    LIG   0.0000
  28 H           -1.4457     1.8680     0.1727 H            1    LIG   0.0000
  29 H           -0.5642     1.5579    -1.1666 H            1    LIG   0.0000
  30 H           -4.7612     2.9809    -2.6388 H            1    LIG   0.0000
@<TRIPOS>BOND
   1        1        2 1
   2        2        3 ar
   3        3        4 ar
   4        4        5 1
   5        5        6 2
   6        6        7 1
   7        7        8 1
   8        8        9 1
   9        9       10 1
  10        9       11 1
  11        9       12 1
  12        8       13 1
  13       13       14 1
  14       14        5 1
  15        4       15 ar
  16       15       16 1
  17       16       17 1
  18       17       18 2
  19       18       19 1
  20       19       15 ar
  21       19       20 ar
  22       20        2 ar
  23        8       21 1
  24       16       22 1
  25        6       23 1
  26        7       24 1
  27        7       25 1
  28       13       26 1
  29       13       27 1
  30       14       28 1
  31       14       29 1
  32       17       30 1

@<TRIPOS>MOLECULE

  30   32
SMALL
USER_CHARGES
@<TRIPOS>ATOM
   1 F1          -4.7946     1.9926    -2.2279 F            1    LIG   0.0000
   2 C2          -4.2999     0.8994    -1.6340 C.ar         1    LIG   0.0000
   3 N3          -3.0664     0.9008    -1.1021 N.ar         1    LIG   0.0000
   4 C4          -2.5462    -0.1819    -0.5011 C.ar         1    LIG   0.0000
   5 C5          -1.2052    -0.0981     0.0460 C.2          1    LIG   0.0000
   6 C6          -0.4263    -1.1626     0.1054 C.2          1    LIG   0.0000
   7 C7           0.9752    -1.0435     0.6944 C.3          1    LIG   0.0000
   8 C8           1.6693     0.2746     0.3639 C.3          1    LIG   0.0000
   9 C9           2.4438     0.0643    -0.9280 C.3          1    LIG   0.0000
  10 F10          2.2278     1.0902    -1.7464 F            1    LIG   0.0000
  11 F11          3.7431    -0.0208    -0.6571 F            1    LIG   0.0000
  12 F12          2.0377    -1.0604    -1.5102 F            1    LIG   0.0000
  13 C13          0.7470     1.4682     0.1231 C.3          1    LIG   0.0000
  14 C14         -0.6994     1.2404     0.5564 C.3          1    LIG   0.0000
  15 C15         -3.2669    -1.3683    -0.3979 C.ar         1    LIG   0.0000
  16 N16         -3.0556    -2.6101     0.1286 N.pl3        1    LIG   0.0000
  17 C17         -4.1752    -3.3576    -0.0906 C.2          1    LIG   0.0000
  18 N18         -5.0400    -2.6024    -0.7284 N.2          1    LIG   0.0000
  19 C19         -4.5247    -1.3558    -0.9471 C.ar         1    LIG   0.0000
  20 N20         -5.0016    -0.2449    -1.5383 N.ar         1    LIG   0.0000
  21 H            2.3109     0.4995     1.0972 H            1    LIG   0.0000
  22 H           -2.2254    -2.9178     0.5934 H            1    LIG   0.0000
  23 H           -0.7543    -2.0439    -0.2348 H            1    LIG   0.0000
  24 H            1.5328    -1.7925     0.3364 H            1    LIG   0.0000
  25 H            0.9076    -1.1241     1.6888 H            1    LIG   0.0000
  26 H            0.7522     1.6759    -0.8550 H            1    LIG   0.0000
  27 H            1.1071     2.2502     0.6319 H            1    LIG   0.0000
  28 H           -0.7491     1.2515     1.5551 H            1    LIG   0.0000
  29 H           -1.2726     1.9714     0.1860 H            1    LIG   0.0000
  30 H           -4.3129    -4.3090     0.1847 H            1    LIG   0.0000
@<TRIPOS>BOND
   1        1        2 1
   2        2        3 ar
   3        3        4 ar
   4        4        5 1
   5        5        6 2
   6        6        7 1
   7        7        8 1
   8        8        9 1
   9        9       10 1
  10        9       11 1
  11        9       12 1
  12        8       13 1
  13       13       14 1
  14       14        5 1
  15        4       15 ar
  16       15       16 1
  17       16       17 1
  18       17       18 2
  19       18       19 1
  20       19       15 ar
  21       19       20 ar
  22       20        2 ar
  23        8       21 1
  24       16       22 1
  25        6       23 1
  26        7       24 1
  27        7       25 1
  28       13       26 1
  29       13       27 1
  30       14       28 1
  31       14       29 1
  32       17       30 1

@<TRIPOS>MOLECULE

  30   32
SMALL
USER_CHARGES
@<TRIPOS>ATOM
   1 F1          -5.6705     1.4780    -0.0024 F            1    LIG   0.0000
   2 C2          -4.7507     0.6354    -0.4887 C.ar         1    LIG   0.0000
   3 N3          -3.4880     0.6520    -0.0305 N.ar         1    LIG   0.0000
   4 C4          -2.5462    -0.1819    -0.5011 C.ar         1    LIG   0.0000
   5 C5          -1.2052    -0.0981     0.0460 C.2          1    LIG   0.0000
   6 C6          -0.4263    -1.1626     0.1054 C.2          1    LIG   0.0000
   7 C7           0.9752    -1.0435     0.6944 C.3          1    LIG   0.0000
   8 C8           1.6693     0.2746     0.3639 C.3          1    LIG   0.0000
   9 C9           2.4438     0.0643    -0.9280 C.3          1    LIG   0.0000
  10 F10          2.2278     1.0902    -1.7464 F            1    LIG   0.0000
  11 F11          3.7431    -0.0208    -0.6571 F            1    LIG   0.0000
  12 F12          2.0377    -1.0604    -1.5102 F            1    LIG   0.0000
  13 C13          0.7470     1.4682     0.1231 C.3          1    LIG   0.0000
  14 C14         -0.6994     1.2404     0.5564 C.3          1    LIG   0.0000
  15 C15         -2.8354    -1.1132    -1.4944 C.ar         1    LIG   0.0000
  16 N16         -2.1489    -2.0773    -2.1751 N.pl3        1    LIG   0.0000
  17 C17         -3.0121    -2.6748    -3.0459 C.2          1    LIG   0.0000
  18 N18         -4.1835    -2.0979    -2.9049 N.2          1    LIG   0.0000
  19 C19         -4.1286    -1.1177    -1.9542 C.ar         1    LIG   0.0000
  20 N20         -5.0366    -0.2621    -1.4498 N.ar         1    LIG   0.0000
  21 H            2.3109     0.4995     1.0972 H            1    LIG   0.0000
  22 H           -1.1826    -2.3053    -2.0561 H            1    LIG   0.0000
  23 H           -0.7543    -2.0439    -0.2348 H            1    LIG   0.0000
  24 H            1.5328    -1.7925     0.3364 H            1    LIG   0.0000
  25 H            0.9076    -1.1241     1.6888 H            1    LIG   0.0000
  26 H            0.7522     1.6759    -0.8550 H            1    LIG   0.0000
  27 H            1.1071     2.2502     0.6319 H            1    LIG   0.0000
  28 H           -0.7491     1.2515     1.5551 H            1    LIG   0.0000
  29 H           -1.2726     1.9714     0.1860 H            1    LIG   0.0000
  30 H           -2.7925    -3.4181    -3.6778 H            1    LIG   0.0000
@<TRIPOS>BOND
   1        1        2 1
   2        2        3 ar
   3        3        4 ar
   4        4        5 1
   5        5        6 2
   6        6        7 1
   7        7        8 1
   8        8        9 1
   9        9       10 1
  10        9       11 1
  11        9       12 1
  12        8       13 1
  13       13       14 1
  14       14        5 1
  15        4       15 ar
  16       15       16 1
  17       16       17 1
  18       17       18 2
  19       18       19 1
  20       19       15 ar
  21       19       20 ar
  22       20        2 ar
  23        8       21 1
  24       16       22 1
  25        6       23 1
  26        7       24 1
  27        7       25 1
  28       13       26 1
  29       13       27 1
  30       14       28 1
  31       14       29 1
  32       17       30 1

@<TRIPOS>MOLECULE

  30   32
SMALL
USER_CHARGES
@<TRIPOS>ATOM
   1 F1          -4.0772     0.1822    -3.7087 F            1    LIG   0.0000
   2 C2          -3.9310    -0.0326    -2.3953 C.ar         1    LIG   0.0000
   3 N3          -2.7206     0.0297    -1.8159 N.ar         1    LIG   0.0000
   4 C4          -2.5462    -0.1819    -0.5011 C.ar         1    LIG   0.0000
   5 C5          -1.2052    -0.0981     0.0460 C.2          1    LIG   0.0000
   6 C6          -0.4263    -1.1626     0.1054 C.2          1    LIG   0.0000
   7 C7           0.9752    -1.0435     0.6944 C.3          1    LIG   0.0000
   8 C8           1.6693     0.2746     0.3639 C.3          1    LIG   0.0000
   9 C9           2.4438     0.0643    -0.9280 C.3          1    LIG   0.0000
  10 F10          2.2278     1.0902    -1.7464 F            1    LIG   0.0000
  11 F11          3.7431    -0.0208    -0.6571 F            1    LIG   0.0000
  12 F12          2.0377    -1.0604    -1.5102 F            1    LIG   0.0000
  13 C13          0.7470     1.4682     0.1231 C.3          1    LIG   0.0000
  14 C14         -0.6994     1.2404     0.5564 C.3          1    LIG   0.0000
  15 C15         -3.6208    -0.4772     0.3330 C.ar         1    LIG   0.0000
  16 N16         -3.7982    -0.7363     1.6616 N.pl3        1    LIG   0.0000
  17 C17         -5.1277    -0.9533     1.8754 C.2          1    LIG   0.0000
  18 N18         -5.7420    -0.8327     0.7209 N.2          1    LIG   0.0000
  19 C19         -4.8509    -0.5392    -0.2728 C.ar         1    LIG   0.0000
  20 N20         -4.9740    -0.3186    -1.5945 N.ar         1    LIG   0.0000
  21 H            2.3109     0.4995     1.0972 H            1    LIG   0.0000
  22 H           -3.0794    -0.7625     2.3563 H            1    LIG   0.0000
  23 H           -0.7543    -2.0439    -0.2348 H            1    LIG   0.0000
  24 H            1.5328    -1.7925     0.3364 H            1    LIG   0.0000
  25 H            0.9076    -1.1241     1.6888 H            1    LIG   0.0000
  26 H            0.7522     1.6759    -0.8550 H            1    LIG   0.0000
  27 H            1.1071     2.2502     0.6319 H            1    LIG   0.0000
  28 H           -0.7491     1.2515     1.5551 H            1    LIG   0.0000
  29 H           -1.2726     1.9714     0.1860 H            1    LIG   0.0000
  30 H           -5.5573    -1.1660     2.7530 H            1    LIG   0.0000
@<TRIPOS>BOND
   1        1        2 1
   2        2        3 ar
   3        3        4 ar
   4        4        5 1
   5        5        6 2
   6        6        7 1
   7        7        8 1
   8        8        9 1
   9        9       10 1
  10        9       11 1
  11        9       12 1
  12        8       13 1
  13       13       14 1
  14       14        5 1
  15        4       15 ar
  16       15       16 1
  17       16       17 1
  18       17       18 2
  19       18       19 1
  20       19       15 ar
  21       19       20 ar
  22       20        2 ar
  23        8       21 1
  24       16       22 1
  25        6       23 1
  26        7       24 1
  27        7       25 1
  28       13       26 1
  29       13       27 1
  30       14       28 1
  31       14       29 1
  32       17       30 1

@<TRIPOS>MOLECULE

  30   32
SMALL
USER_CHARGES
@<TRIPOS>ATOM
   1 F1          -5.8290    -0.8468     0.7423 F            1    LIG   0.0000
   2 C2          -4.8326    -0.5606    -0.1049 C.ar         1    LIG   0.0000
   3 N3          -3.5640    -0.4680     0.3272 N.ar         1    LIG   0.0000
   4 C4          -2.5462    -0.1819    -0.5011 C.ar         1    LIG   0.0000
   5 C5          -1.2052    -0.0981     0.0460 C.2          1    LIG   0.0000
   6 C6          -0.4263    -1.1626     0.1054 C.2          1    LIG   0.0000
   7 C7           0.9752    -1.0435     0.6944 C.3          1    LIG   0.0000
   8 C8           1.6693     0.2746     0.3639 C.3          1    LIG   0.0000
   9 C9           2.4438     0.0643    -0.9280 C.3          1    LIG   0.0000
  10 F10          2.2278     1.0902    -1.7464 F            1    LIG   0.0000
  11 F11          3.7431    -0.0208    -0.6571 F            1    LIG   0.0000
  12 F12          2.0377    -1.0604    -1.5102 F            1    LIG   0.0000
  13 C13          0.7470     1.4682     0.1231 C.3          1    LIG   0.0000
  14 C14         -0.6994     1.2404     0.5564 C.3          1    LIG   0.0000
  15 C15         -2.7579     0.0330    -1.8601 C.ar         1    LIG   0.0000
  16 N16         -1.9849     0.3294    -2.9457 N.pl3        1    LIG   0.0000
  17 C17         -2.8014     0.4123    -4.0351 C.2          1    LIG   0.0000
  18 N18         -4.0289     0.1765    -3.6321 N.2          1    LIG   0.0000
  19 C19         -4.0587    -0.0631    -2.2871 C.ar         1    LIG   0.0000
  20 N20         -5.0441    -0.3530    -1.4176 N.ar         1    LIG   0.0000
  21 H            2.3109     0.4995     1.0972 H            1    LIG   0.0000
  22 H           -0.9938     0.4625    -2.9427 H            1    LIG   0.0000
  23 H           -0.7543    -2.0439    -0.2348 H            1    LIG   0.0000
  24 H            1.5328    -1.7925     0.3364 H            1    LIG   0.0000
  25 H            0.9076    -1.1241     1.6888 H            1    LIG   0.0000
  26 H            0.7522     1.6759    -0.8550 H            1    LIG   0.0000
  27 H            1.1071     2.2502     0.6319 H            1    LIG   0.0000
  28 H           -0.7491     1.2515     1.5551 H            1    LIG   0.0000
  29 H           -1.2726     1.9714     0.1860 H            1    LIG   0.0000
  30 H           -2.5166     0.6159    -4.9719 H            1    LIG   0.0000
@<TRIPOS>BOND
   1        1        2 1
   2        2        3 ar
   3        3        4 ar
   4        4        5 1
   5        5        6 2
   6        6        7 1
   7        7        8 1
   8        8        9 1
   9        9       10 1
  10        9       11 1
  11        9       12 1
  12        8       13 1
  13       13       14 1
  14       14        5 1
  15        4       15 ar
  16       15       16 1
  17       16       17 1
  18       17       18 2
  19       18       19 1
  20       19       15 ar
  21       19       20 ar
  22       20        2 ar
  23        8       21 1
  24       16       22 1
  25        6       23 1
  26        7       24 1
  27        7       25 1
  28       13       26 1
  29       13       27 1
  30       14       28 1
  31       14       29 1
  32       17       30 1

@<TRIPOS>MOLECULE

  30   32
SMALL
USER_CHARGES
@<TRIPOS>ATOM
   1 F1          -4.2357    -2.1426    -2.9640 F            1    LIG   0.0000
   2 C2          -4.0129    -1.2286    -2.0115 C.ar         1    LIG   0.0000
   3 N3          -2.7966    -1.0902    -1.4582 N.ar         1    LIG   0.0000
   4 C4          -2.5462    -0.1819    -0.5011 C.ar         1    LIG   0.0000
   5 C5          -1.2052    -0.0981     0.0460 C.2          1    LIG   0.0000
   6 C6          -0.4263    -1.1626     0.1054 C.2          1    LIG   0.0000
   7 C7           0.9752    -1.0435     0.6944 C.3          1    LIG   0.0000
   8 C8           1.6693     0.2746     0.3639 C.3          1    LIG   0.0000
   9 C9           2.4438     0.0643    -0.9280 C.3          1    LIG   0.0000
  10 F10          2.2278     1.0902    -1.7464 F            1    LIG   0.0000
  11 F11          3.7431    -0.0208    -0.6571 F            1    LIG   0.0000
  12 F12          2.0377    -1.0604    -1.5102 F            1    LIG   0.0000
  13 C13          0.7470     1.4682     0.1231 C.3          1    LIG   0.0000
  14 C14         -0.6994     1.2404     0.5564 C.3          1    LIG   0.0000
  15 C15         -3.5433     0.6691    -0.0327 C.ar         1    LIG   0.0000
  16 N16         -3.6342     1.6703     0.8910 N.pl3        1    LIG   0.0000
  17 C17         -4.9170     2.1337     0.8862 C.2          1    LIG   0.0000
  18 N18         -5.5874     1.4417    -0.0063 N.2          1    LIG   0.0000
  19 C19         -4.7810     0.5154    -0.6056 C.ar         1    LIG   0.0000
  20 N20         -4.9815    -0.4095    -1.5623 N.ar         1    LIG   0.0000
  21 H            2.3109     0.4995     1.0972 H            1    LIG   0.0000
  22 H           -2.8906     2.0053     1.4697 H            1    LIG   0.0000
  23 H           -0.7543    -2.0439    -0.2348 H            1    LIG   0.0000
  24 H            1.5328    -1.7925     0.3364 H            1    LIG   0.0000
  25 H            0.9076    -1.1241     1.6888 H            1    LIG   0.0000
  26 H            0.7522     1.6759    -0.8550 H            1    LIG   0.0000
  27 H            1.1071     2.2502     0.6319 H            1    LIG   0.0000
  28 H           -0.7491     1.2515     1.5551 H            1    LIG   0.0000
  29 H           -1.2726     1.9714     0.1860 H            1    LIG   0.0000
  30 H           -5.2814     2.8680     1.4589 H            1    LIG   0.0000
@<TRIPOS>BOND
   1        1        2 1
   2        2        3 ar
   3        3        4 ar
   4        4        5 1
   5        5        6 2
   6        6        7 1
   7        7        8 1
   8        8        9 1
   9        9       10 1
  10        9       11 1
  11        9       12 1
  12        8       13 1
  13       13       14 1
  14       14        5 1
  15        4       15 ar
  16       15       16 1
  17       16       17 1
  18       17       18 2
  19       18       19 1
  20       19       15 ar
  21       19       20 ar
  22       20        2 ar
  23        8       21 1
  24       16       22 1
  25        6       23 1
  26        7       24 1
  27        7       25 1
  28       13       26 1
  29       13       27 1
  30       14       28 1
  31       14       29 1
  32       17       30 1

