@<TRIPOS>MOLECULE
*****
 30 32 0 0 0
SMALL
USER_CHARGES

@<TRIPOS>ATOM
      1 F1         -5.8290   -0.8468    0.7423 F       1  LIG1        0.0000
      2 C2         -4.8326   -0.5606   -0.1049 C.ar    1  LIG1        0.0000
      3 N3         -3.5640   -0.4680    0.3272 N.ar    1  LIG1        0.0000
      4 C4         -2.5462   -0.1819   -0.5011 C.ar    1  LIG1        0.0000
      5 C5         -1.2052   -0.0981    0.0460 C.2     1  LIG1        0.0000
      6 C6         -0.4263   -1.1626    0.1054 C.2     1  LIG1        0.0000
      7 C7          0.9752   -1.0435    0.6944 C.3     1  LIG1        0.0000
      8 C8          1.6693    0.2746    0.3639 C.3     1  LIG1        0.0000
      9 C9          2.4438    0.0643   -0.9280 C.3     1  LIG1        0.0000
     10 F10         2.2278    1.0902   -1.7464 F       1  LIG1        0.0000
     11 F11         3.7431   -0.0208   -0.6571 F       1  LIG1        0.0000
     12 F12         2.0377   -1.0604   -1.5102 F       1  LIG1        0.0000
     13 C13         0.7470    1.4682    0.1231 C.3     1  LIG1        0.0000
     14 C14        -0.6994    1.2404    0.5564 C.3     1  LIG1        0.0000
     15 C15        -2.7579    0.0330   -1.8601 C.ar    1  LIG1        0.0000
     16 N16        -1.9849    0.3294   -2.9457 N.pl3   1  LIG1        0.0000
     17 C17        -2.8014    0.4123   -4.0351 C.2     1  LIG1        0.0000
     18 N18        -4.0289    0.1765   -3.6321 N.2     1  LIG1        0.0000
     19 C19        -4.0587   -0.0631   -2.2871 C.ar    1  LIG1        0.0000
     20 N20        -5.0441   -0.3530   -1.4176 N.ar    1  LIG1        0.0000
     21 H           2.3109    0.4995    1.0972 H       1  LIG1        0.0000
     22 H          -0.9938    0.4625   -2.9427 H       1  LIG1        0.0000
     23 H          -0.7543   -2.0439   -0.2348 H       1  LIG1        0.0000
     24 H           1.5328   -1.7925    0.3364 H       1  LIG1        0.0000
     25 H           0.9076   -1.1241    1.6888 H       1  LIG1        0.0000
     26 H           0.7522    1.6759   -0.8550 H       1  LIG1        0.0000
     27 H           1.1071    2.2502    0.6319 H       1  LIG1        0.0000
     28 H          -0.7491    1.2515    1.5551 H       1  LIG1        0.0000
     29 H          -1.2726    1.9714    0.1860 H       1  LIG1        0.0000
     30 H          -2.5166    0.6159   -4.9719 H       1  LIG1        0.0000
@<TRIPOS>BOND
     1     1     2    1
     2     2     3   ar
     3     3     4   ar
     4     4     5    1
     5     5     6    2
     6     6     7    1
     7     7     8    1
     8     8     9    1
     9     9    10    1
    10     9    11    1
    11     9    12    1
    12     8    13    1
    13    13    14    1
    14    14     5    1
    15     4    15   ar
    16    15    16    1
    17    16    17    1
    18    17    18    2
    19    18    19    1
    20    19    15   ar
    21    19    20   ar
    22    20     2   ar
    23     8    21    1
    24    16    22    1
    25     6    23    1
    26     7    24    1
    27     7    25    1
    28    13    26    1
    29    13    27    1
    30    14    28    1
    31    14    29    1
    32    17    30    1
