@<TRIPOS>MOLECULE
*****
 30 32 0 0 0
SMALL
USER_CHARGES

@<TRIPOS>ATOM
      1 F1         -5.7079    1.3164    0.6698 F       1  LIG1        0.0000
      2 C2         -4.8998    0.3933    0.1337 C.ar    1  LIG1        0.0000
      3 N3         -3.5647    0.5342    0.1791 N.ar    1  LIG1        0.0000
      4 C4         -2.7318   -0.3764   -0.3509 C.ar    1  LIG1        0.0000
      5 C5         -1.3019   -0.1481   -0.2615 C.2     1  LIG1        0.0000
      6 C6         -0.5015   -1.1978   -0.2023 C.2     1  LIG1        0.0000
      7 C7          0.9990   -0.9810   -0.0726 C.3     1  LIG1        0.0000
      8 C8          1.2841    0.1591    0.8961 C.3     1  LIG1        0.0000
      9 C9          2.7724    0.4654    0.8456 C.3     1  LIG1        0.0000
     10 F10         3.0870    0.9392   -0.3567 F       1  LIG1        0.0000
     11 F11         3.0700    1.3727    1.7715 F       1  LIG1        0.0000
     12 F12         3.4623   -0.6477    1.0778 F       1  LIG1        0.0000
     13 C13         0.5381    1.4532    0.5788 C.3     1  LIG1        0.0000
     14 C14        -0.7468    1.2737   -0.2253 C.3     1  LIG1        0.0000
     15 C15        -3.2157   -1.5215   -0.9774 C.ar    1  LIG1        0.0000
     16 N16        -2.6760   -2.6118   -1.5970 N.pl3   1  LIG1        0.0000
     17 C17        -3.7001   -3.4104   -2.0137 C.2     1  LIG1        0.0000
     18 N18        -4.8254   -2.8308   -1.6635 N.2     1  LIG1        0.0000
     19 C19        -4.5815   -1.6514   -1.0177 C.ar    1  LIG1        0.0000
     20 N20        -5.3742   -0.7112   -0.4713 N.ar    1  LIG1        0.0000
     21 H           1.0448   -0.1344    1.8216 H       1  LIG1        0.0000
     22 H          -1.7007   -2.7931   -1.7232 H       1  LIG1        0.0000
     23 H          -0.8773   -2.1236   -0.2422 H       1  LIG1        0.0000
     24 H           1.3788   -0.7551   -0.9696 H       1  LIG1        0.0000
     25 H           1.4254   -1.8187    0.2686 H       1  LIG1        0.0000
     26 H           1.1516    2.0452    0.0561 H       1  LIG1        0.0000
     27 H           0.3038    1.8968    1.4439 H       1  LIG1        0.0000
     28 H          -1.4457    1.8680    0.1727 H       1  LIG1        0.0000
     29 H          -0.5642    1.5579   -1.1666 H       1  LIG1        0.0000
     30 H          -3.6104   -4.2804   -2.4985 H       1  LIG1        0.0000
@<TRIPOS>BOND
     1     1     2    1
     2     2     3   ar
     3     3     4   ar
     4     4     5    1
     5     5     6    2
     6     6     7    1
     7     7     8    1
     8     8     9    1
     9     9    10    1
    10     9    11    1
    11     9    12    1
    12     8    13    1
    13    13    14    1
    14    14     5    1
    15     4    15   ar
    16    15    16    1
    17    16    17    1
    18    17    18    2
    19    18    19    1
    20    19    15   ar
    21    19    20   ar
    22    20     2   ar
    23     8    21    1
    24    16    22    1
    25     6    23    1
    26     7    24    1
    27     7    25    1
    28    13    26    1
    29    13    27    1
    30    14    28    1
    31    14    29    1
    32    17    30    1
