@<TRIPOS>MOLECULE
*****
 30 32 0 0 0
SMALL
USER_CHARGES

@<TRIPOS>ATOM
      1 F1          1.1711    6.5605   -1.8519 F       1  LIG1        0.0000
      2 C2          0.9735    5.8126   -0.7591 C.ar    1  LIG1        0.0000
      3 N3          1.0820    4.4746   -0.8091 N.ar    1  LIG1        0.0000
      4 C4          0.8886    3.7012    0.2718 C.ar    1  LIG1        0.0000
      5 C5          1.0228    2.2635    0.1327 C.2     1  LIG1        0.0000
      6 C6         -0.0324    1.5274   -0.1873 C.2     1  LIG1        0.0000
      7 C7          0.0693    0.0205   -0.3761 C.3     1  LIG1        0.0000
      8 C8          1.3283   -0.5447    0.2583 C.3     1  LIG1        0.0000
      9 C9          1.4563   -2.0089   -0.1297 C.3     1  LIG1        0.0000
     10 F10         1.4657   -2.1170   -1.4553 F       1  LIG1        0.0000
     11 F11         2.5893   -2.5008    0.3633 F       1  LIG1        0.0000
     12 F12         0.4257   -2.6899    0.3633 F       1  LIG1        0.0000
     13 C13         2.4983    0.2632   -0.2789 C.3     1  LIG1        0.0000
     14 C14         2.3914    1.6385    0.3594 C.3     1  LIG1        0.0000
     15 C15         0.5650    4.2535    1.5080 C.ar    1  LIG1        0.0000
     16 N16         0.3123    3.7833    2.7645 N.pl3   1  LIG1        0.0000
     17 C17         0.0525    4.8523    3.5708 C.2     1  LIG1        0.0000
     18 N18         0.1417    5.9370    2.8358 N.2     1  LIG1        0.0000
     19 C19         0.4558    5.6212    1.5438 C.ar    1  LIG1        0.0000
     20 N20         0.6599    6.3528    0.4329 N.ar    1  LIG1        0.0000
     21 H           1.2796   -0.4570    1.2533 H       1  LIG1        0.0000
     22 H           0.3168    2.8233    3.0447 H       1  LIG1        0.0000
     23 H          -0.9189    1.9742   -0.3079 H       1  LIG1        0.0000
     24 H           0.0810   -0.1829   -1.3551 H       1  LIG1        0.0000
     25 H          -0.7276   -0.4128    0.0449 H       1  LIG1        0.0000
     26 H           2.4404    0.3375   -1.2745 H       1  LIG1        0.0000
     27 H           3.3637   -0.1699   -0.0268 H       1  LIG1        0.0000
     28 H           2.5483    1.5516    1.3432 H       1  LIG1        0.0000
     29 H           3.0890    2.2347   -0.0380 H       1  LIG1        0.0000
     30 H          -0.1664    4.8165    4.5459 H       1  LIG1        0.0000
@<TRIPOS>BOND
     1     1     2    1
     2     2     3   ar
     3     3     4   ar
     4     4     5    1
     5     5     6    2
     6     6     7    1
     7     7     8    1
     8     8     9    1
     9     9    10    1
    10     9    11    1
    11     9    12    1
    12     8    13    1
    13    13    14    1
    14    14     5    1
    15     4    15   ar
    16    15    16    1
    17    16    17    1
    18    17    18    2
    19    18    19    1
    20    19    15   ar
    21    19    20   ar
    22    20     2   ar
    23     8    21    1
    24    16    22    1
    25     6    23    1
    26     7    24    1
    27     7    25    1
    28    13    26    1
    29    13    27    1
    30    14    28    1
    31    14    29    1
    32    17    30    1
