@<TRIPOS>MOLECULE

  51   55
SMALL
USER_CHARGES
@<TRIPOS>ATOM
   1 C1          -1.9305     5.9275     1.0025 C.3          1    LIG   0.0000
   2 C2          -1.1442     4.6246     1.0011 C.ar         1    LIG   0.0000
   3 C3          -1.8254     3.4126     1.0010 C.ar         1    LIG   0.0000
   4 C4          -1.1161     2.2161     1.0000 C.ar         1    LIG   0.0000
   5 C5           0.2751     2.2555     1.0000 C.ar         1    LIG   0.0000
   6 C6           1.0000     1.0000     1.0000 C.2          1    LIG   0.0000
   7 N7           2.2500     1.0000     1.0000 N.2          1    LIG   0.0000
   8 N8           2.7985     2.2318     1.0000 N.2          1    LIG   1.0000
   9 C9           3.6298     2.6946     1.9855 C.2          1    LIG   0.0000
  10 C10          4.0428     1.9507     3.1598 C.ar         1    LIG   0.0000
  11 C11          4.5500     0.6617     3.0359 C.ar         1    LIG   0.0000
  12 C12          4.9464    -0.0299     4.1750 C.ar         1    LIG   0.0000
  13 C13          4.8604     0.5305     5.4462 C.ar         1    LIG   0.0000
  14 C14          4.3374     1.8138     5.5581 C.ar         1    LIG   0.0000
  15 C15          3.9368     2.5172     4.4262 C.ar         1    LIG   0.0000
  16 N16          4.2261     2.3645     6.8386 N.am         1    LIG   0.0000
  17 C17          4.9357     1.8312     7.9211 C.2          1    LIG   0.0000
  18 O18          4.8780     2.3159     9.0433 O.2          1    LIG   0.0000
  19 C19          5.7890     0.6049     7.6399 C.3          1    LIG   0.0000
  20 O20          5.2676    -0.1408     6.5480 O.3          1    LIG   0.0000
  21 C21          4.1026     3.9629     1.8366 C.2          1    LIG   0.0000
  22 S22          3.4067     4.4890     0.3721 S.3          1    LIG   0.0000
  23 C23          2.5485     3.0657     0.0171 C.2          1    LIG   0.0000
  24 N24          1.7393     2.8332    -1.0980 N.pl3        1    LIG   0.0000
  25 C25          1.0943     1.6000    -1.2499 C.ar         1    LIG   0.0000
  26 C26         -0.2092     1.5928    -1.7357 C.ar         1    LIG   0.0000
  27 C27         -0.8584     0.3727    -1.8925 C.ar         1    LIG   0.0000
  28 C28         -0.2041    -0.8093    -1.5663 C.ar         1    LIG   0.0000
  29 C29          1.0987    -0.7374    -1.0856 C.ar         1    LIG   0.0000
  30 N30          1.7087     0.4481    -0.9403 N.ar         1    LIG   0.0000
  31 N31          0.9144     3.4360     1.0000 N.ar         1    LIG   0.0000
  32 C32          0.2474     4.5992     1.0010 C.ar         1    LIG   0.0000
  33 H           -2.9099     5.7258     1.0023 H            1    LIG   0.0000
  34 H           -1.6991     6.4556     1.8196 H            1    LIG   0.0000
  35 H           -1.6992     6.4574     0.1866 H            1    LIG   0.0000
  36 H           -2.8253     3.4011     1.0018 H            1    LIG   0.0000
  37 H           -1.5988     1.3403     0.9992 H            1    LIG   0.0000
  38 H            0.5000     0.1340     1.0000 H            1    LIG   0.0000
  39 H            4.6291     0.2357     2.1346 H            1    LIG   0.0000
  40 H            5.3042    -0.9586     4.0780 H            1    LIG   0.0000
  41 H            3.5681     3.4416     4.5242 H            1    LIG   0.0000
  42 H            3.6290     3.1534     6.9836 H            1    LIG   0.0000
  43 H            6.7197     0.8977     7.4207 H            1    LIG   0.0000
  44 H            5.8052     0.0244     8.4540 H            1    LIG   0.0000
  45 H            4.7153     4.4679     2.4445 H            1    LIG   0.0000
  46 H            1.6209     3.5476    -1.7876 H            1    LIG   0.0000
  47 H           -0.6709     2.4488    -1.9680 H            1    LIG   0.0000
  48 H           -1.7957     0.3460    -2.2398 H            1    LIG   0.0000
  49 H           -0.6604    -1.6925    -1.6750 H            1    LIG   0.0000
  50 H            1.5853    -1.5775    -0.8460 H            1    LIG   0.0000
  51 H            0.7565     5.4599     1.0017 H            1    LIG   0.0000
@<TRIPOS>BOND
   1        1        2 1
   2        2        3 ar
   3        3        4 ar
   4        4        5 ar
   5        5        6 1
   6        6        7 2
   7        7        8 1
   8        8        9 1
   9        9       10 1
  10       10       11 ar
  11       11       12 ar
  12       12       13 ar
  13       13       14 ar
  14       14       15 ar
  15       15       10 ar
  16       14       16 1
  17       16       17 am
  18       17       18 2
  19       17       19 1
  20       19       20 1
  21       20       13 1
  22        9       21 2
  23       21       22 1
  24       22       23 1
  25       23        8 2
  26       23       24 1
  27       24       25 1
  28       25       26 ar
  29       26       27 ar
  30       27       28 ar
  31       28       29 ar
  32       29       30 ar
  33       30       25 ar
  34        5       31 ar
  35       31       32 ar
  36       32        2 ar
  37        1       33 1
  38        1       34 1
  39        1       35 1
  40        3       36 1
  41        4       37 1
  42        6       38 1
  43       11       39 1
  44       12       40 1
  45       15       41 1
  46       16       42 1
  47       19       43 1
  48       19       44 1
  49       21       45 1
  50       24       46 1
  51       26       47 1
  52       27       48 1
  53       28       49 1
  54       29       50 1
  55       32       51 1

@<TRIPOS>MOLECULE

  51   55
SMALL
USER_CHARGES
@<TRIPOS>ATOM
   1 C1          -1.9305     5.9275     1.0025 C.3          1    LIG   0.0000
   2 C2          -1.1442     4.6246     1.0011 C.ar         1    LIG   0.0000
   3 C3          -1.8254     3.4126     1.0010 C.ar         1    LIG   0.0000
   4 C4          -1.1161     2.2161     1.0000 C.ar         1    LIG   0.0000
   5 C5           0.2751     2.2555     1.0000 C.ar         1    LIG   0.0000
   6 C6           1.0000     1.0000     1.0000 C.2          1    LIG   0.0000
   7 N7           2.2500     1.0000     1.0000 N.2          1    LIG   0.0000
   8 N8           2.7985     2.2318     1.0000 N.2          1    LIG   1.0000
   9 C9           3.6298     2.6946     1.9855 C.2          1    LIG   0.0000
  10 C10          4.0428     1.9507     3.1598 C.ar         1    LIG   0.0000
  11 C11          3.0999     1.3106     3.9569 C.ar         1    LIG   0.0000
  12 C12          3.5196     0.5972     5.0741 C.ar         1    LIG   0.0000
  13 C13          4.8635     0.4931     5.4214 C.ar         1    LIG   0.0000
  14 C14          5.7947     1.1502     4.6252 C.ar         1    LIG   0.0000
  15 C15          5.3882     1.8678     3.5043 C.ar         1    LIG   0.0000
  16 N16          7.1416     1.0673     4.9914 N.am         1    LIG   0.0000
  17 C17          7.5920     0.0835     5.8798 C.2          1    LIG   0.0000
  18 O18          8.7707    -0.0274     6.1898 O.2          1    LIG   0.0000
  19 C19          6.5392    -0.8508     6.4538 C.3          1    LIG   0.0000
  20 O20          5.2662    -0.2204     6.4982 O.3          1    LIG   0.0000
  21 C21          4.1026     3.9629     1.8366 C.2          1    LIG   0.0000
  22 S22          3.4067     4.4890     0.3721 S.3          1    LIG   0.0000
  23 C23          2.5485     3.0657     0.0171 C.2          1    LIG   0.0000
  24 N24          1.7393     2.8332    -1.0980 N.pl3        1    LIG   0.0000
  25 C25          1.7667     1.5869    -1.7351 C.ar         1    LIG   0.0000
  26 C26          2.9942     0.9503    -1.8865 C.ar         1    LIG   0.0000
  27 C27          3.0323    -0.2893    -2.5162 C.ar         1    LIG   0.0000
  28 C28          1.8574    -0.8694    -2.9797 C.ar         1    LIG   0.0000
  29 C29          0.6611    -0.1842    -2.7987 C.ar         1    LIG   0.0000
  30 N30          0.6435     1.0106    -2.1898 N.ar         1    LIG   0.0000
  31 N31          0.9144     3.4360     1.0000 N.ar         1    LIG   0.0000
  32 C32          0.2474     4.5992     1.0010 C.ar         1    LIG   0.0000
  33 H           -2.9099     5.7258     1.0023 H            1    LIG   0.0000
  34 H           -1.6991     6.4556     1.8196 H            1    LIG   0.0000
  35 H           -1.6992     6.4574     0.1866 H            1    LIG   0.0000
  36 H           -2.8253     3.4011     1.0018 H            1    LIG   0.0000
  37 H           -1.5988     1.3403     0.9992 H            1    LIG   0.0000
  38 H            0.5000     0.1340     1.0000 H            1    LIG   0.0000
  39 H            2.1278     1.3630     3.7284 H            1    LIG   0.0000
  40 H            2.8349     0.1450     5.6456 H            1    LIG   0.0000
  41 H            6.0719     2.3297     2.9392 H            1    LIG   0.0000
  42 H            7.7949     1.7225     4.6120 H            1    LIG   0.0000
  43 H            6.4795    -1.6677     5.8801 H            1    LIG   0.0000
  44 H            6.8061    -1.1135     7.3811 H            1    LIG   0.0000
  45 H            4.7153     4.4679     2.4445 H            1    LIG   0.0000
  46 H            1.1406     3.5570    -1.4410 H            1    LIG   0.0000
  47 H            3.8338     1.3760    -1.5489 H            1    LIG   0.0000
  48 H            3.9048    -0.7632    -2.6353 H            1    LIG   0.0000
  49 H            1.8721    -1.7603    -3.4337 H            1    LIG   0.0000
  50 H           -0.1943    -0.5862    -3.1255 H            1    LIG   0.0000
  51 H            0.7565     5.4599     1.0017 H            1    LIG   0.0000
@<TRIPOS>BOND
   1        1        2 1
   2        2        3 ar
   3        3        4 ar
   4        4        5 ar
   5        5        6 1
   6        6        7 2
   7        7        8 1
   8        8        9 1
   9        9       10 1
  10       10       11 ar
  11       11       12 ar
  12       12       13 ar
  13       13       14 ar
  14       14       15 ar
  15       15       10 ar
  16       14       16 1
  17       16       17 am
  18       17       18 2
  19       17       19 1
  20       19       20 1
  21       20       13 1
  22        9       21 2
  23       21       22 1
  24       22       23 1
  25       23        8 2
  26       23       24 1
  27       24       25 1
  28       25       26 ar
  29       26       27 ar
  30       27       28 ar
  31       28       29 ar
  32       29       30 ar
  33       30       25 ar
  34        5       31 ar
  35       31       32 ar
  36       32        2 ar
  37        1       33 1
  38        1       34 1
  39        1       35 1
  40        3       36 1
  41        4       37 1
  42        6       38 1
  43       11       39 1
  44       12       40 1
  45       15       41 1
  46       16       42 1
  47       19       43 1
  48       19       44 1
  49       21       45 1
  50       24       46 1
  51       26       47 1
  52       27       48 1
  53       28       49 1
  54       29       50 1
  55       32       51 1

@<TRIPOS>MOLECULE

  51   55
SMALL
USER_CHARGES
@<TRIPOS>ATOM
   1 C1          -1.9208     5.9331     1.0393 C.3          1    LIG   0.0000
   2 C2          -1.1386     4.6278     1.0233 C.ar         1    LIG   0.0000
   3 C3          -1.6810     3.4960     1.6212 C.ar         1    LIG   0.0000
   4 C4          -0.9741     2.2982     1.6123 C.ar         1    LIG   0.0000
   5 C5           0.2751     2.2555     1.0000 C.ar         1    LIG   0.0000
   6 C6           1.0000     1.0000     1.0000 C.2          1    LIG   0.0000
   7 N7           2.2500     1.0000     1.0000 N.2          1    LIG   0.0000
   8 N8           2.7985     2.2318     1.0000 N.2          1    LIG   1.0000
   9 C9           3.8425     2.5999     0.1932 C.2          1    LIG   0.0000
  10 C10          4.5099     1.7427    -0.7674 C.ar         1    LIG   0.0000
  11 C11          3.7720     1.0082    -1.6894 C.ar         1    LIG   0.0000
  12 C12          4.4336     0.1984    -2.6057 C.ar         1    LIG   0.0000
  13 C13          5.8218     0.1024    -2.6387 C.ar         1    LIG   0.0000
  14 C14          6.5472     0.8299    -1.7020 C.ar         1    LIG   0.0000
  15 C15          5.8977     1.6442    -0.7791 C.ar         1    LIG   0.0000
  16 N16          7.9404     0.7108    -1.7188 N.am         1    LIG   0.0000
  17 C17          8.6103     0.1952    -2.8347 C.2          1    LIG   0.0000
  18 O18          9.8302     0.1111    -2.8837 O.2          1    LIG   0.0000
  19 C19          7.7454    -0.2661    -3.9966 C.3          1    LIG   0.0000
  20 O20          6.4595    -0.6715    -3.5469 O.3          1    LIG   0.0000
  21 C21          4.2804     3.8837     0.3127 C.2          1    LIG   0.0000
  22 S22          3.2693     4.5501     1.5126 S.3          1    LIG   0.0000
  23 C23          2.3337     3.1613     1.8026 C.2          1    LIG   0.0000
  24 N24          1.2820     3.0368     2.7139 N.pl3        1    LIG   0.0000
  25 C25          1.1429     1.8645     3.4664 C.ar         1    LIG   0.0000
  26 C26          2.2917     1.2655     3.9728 C.ar         1    LIG   0.0000
  27 C27          2.1644     0.1016     4.7236 C.ar         1    LIG   0.0000
  28 C28          0.9062    -0.4410     4.9561 C.ar         1    LIG   0.0000
  29 C29         -0.2048     0.2039     4.4238 C.ar         1    LIG   0.0000
  30 N30         -0.0630     1.3251     3.7017 N.ar         1    LIG   0.0000
  31 N31          0.7817     3.3593     0.4281 N.ar         1    LIG   0.0000
  32 C32          0.1146     4.5226     0.4270 C.ar         1    LIG   0.0000
  33 H           -2.7902     5.7949     1.5136 H            1    LIG   0.0000
  34 H           -1.3895     6.6343     1.5146 H            1    LIG   0.0000
  35 H           -2.0967     6.2278     0.1000 H            1    LIG   0.0000
  36 H           -2.5795     3.5430     2.0577 H            1    LIG   0.0000
  37 H           -1.3578     1.4795     2.0395 H            1    LIG   0.0000
  38 H            0.5000     0.1340     1.0000 H            1    LIG   0.0000
  39 H            2.7734     1.0619    -1.6932 H            1    LIG   0.0000
  40 H            3.8955    -0.3314    -3.2613 H            1    LIG   0.0000
  41 H            6.4352     2.1651    -0.1160 H            1    LIG   0.0000
  42 H            8.4676     0.9991    -0.9195 H            1    LIG   0.0000
  43 H            7.6419     0.4872    -4.6461 H            1    LIG   0.0000
  44 H            8.1914    -1.0380    -4.4497 H            1    LIG   0.0000
  45 H            5.0221     4.3313    -0.1868 H            1    LIG   0.0000
  46 H            0.6286     3.7851     2.8286 H            1    LIG   0.0000
  47 H            3.1924     1.6642     3.8001 H            1    LIG   0.0000
  48 H            2.9781    -0.3447     5.0961 H            1    LIG   0.0000
  49 H            0.8021    -1.2771     5.4946 H            1    LIG   0.0000
  50 H           -1.1181    -0.1718     4.5810 H            1    LIG   0.0000
  51 H            0.5230     5.3250    -0.0080 H            1    LIG   0.0000
@<TRIPOS>BOND
   1        1        2 1
   2        2        3 ar
   3        3        4 ar
   4        4        5 ar
   5        5        6 1
   6        6        7 2
   7        7        8 1
   8        8        9 1
   9        9       10 1
  10       10       11 ar
  11       11       12 ar
  12       12       13 ar
  13       13       14 ar
  14       14       15 ar
  15       15       10 ar
  16       14       16 1
  17       16       17 am
  18       17       18 2
  19       17       19 1
  20       19       20 1
  21       20       13 1
  22        9       21 2
  23       21       22 1
  24       22       23 1
  25       23        8 2
  26       23       24 1
  27       24       25 1
  28       25       26 ar
  29       26       27 ar
  30       27       28 ar
  31       28       29 ar
  32       29       30 ar
  33       30       25 ar
  34        5       31 ar
  35       31       32 ar
  36       32        2 ar
  37        1       33 1
  38        1       34 1
  39        1       35 1
  40        3       36 1
  41        4       37 1
  42        6       38 1
  43       11       39 1
  44       12       40 1
  45       15       41 1
  46       16       42 1
  47       19       43 1
  48       19       44 1
  49       21       45 1
  50       24       46 1
  51       26       47 1
  52       27       48 1
  53       28       49 1
  54       29       50 1
  55       32       51 1

@<TRIPOS>MOLECULE

  51   55
SMALL
USER_CHARGES
@<TRIPOS>ATOM
   1 C1          -1.9230     5.9318     0.9651 C.3          1    LIG   0.0000
   2 C2          -1.1395     4.6273     0.9786 C.ar         1    LIG   0.0000
   3 C3          -1.6819     3.4954     0.3806 C.ar         1    LIG   0.0000
   4 C4          -0.9740     2.2982     0.3877 C.ar         1    LIG   0.0000
   5 C5           0.2751     2.2555     1.0000 C.ar         1    LIG   0.0000
   6 C6           1.0000     1.0000     1.0000 C.2          1    LIG   0.0000
   7 N7           2.2500     1.0000     1.0000 N.2          1    LIG   0.0000
   8 N8           2.7985     2.2318     1.0000 N.2          1    LIG   1.0000
   9 C9           2.5861     3.1593     0.0145 C.2          1    LIG   0.0000
  10 C10          1.7569     2.9684    -1.1598 C.ar         1    LIG   0.0000
  11 C11          0.4653     3.4822    -1.2023 C.ar         1    LIG   0.0000
  12 C12         -0.3091     3.2931    -2.3414 C.ar         1    LIG   0.0000
  13 C13          0.1702     2.6085    -3.4546 C.ar         1    LIG   0.0000
  14 C14          1.4574     2.0867    -3.3937 C.ar         1    LIG   0.0000
  15 C15          2.2431     2.2685    -2.2596 C.ar         1    LIG   0.0000
  16 N16          1.9271     1.3755    -4.5022 N.am         1    LIG   0.0000
  17 C17          1.3058     1.4877    -5.7517 C.2          1    LIG   0.0000
  18 O18          1.7184     0.8994    -6.7423 O.2          1    LIG   0.0000
  19 C19          0.0774     2.3803    -5.8251 C.3          1    LIG   0.0000
  20 O20         -0.5817     2.4466    -4.5676 O.3          1    LIG   0.0000
  21 C21          3.2122     4.3593     0.1634 C.2          1    LIG   0.0000
  22 S22          4.0688     4.1942     1.6279 S.3          1    LIG   0.0000
  23 C23          3.5854     2.6040     1.9829 C.2          1    LIG   0.0000
  24 N24          3.9540     1.8471     3.0980 N.pl3        1    LIG   0.0000
  25 C25          3.4692     0.5426     3.2499 C.ar         1    LIG   0.0000
  26 C26          4.2107    -0.5037     2.7107 C.ar         1    LIG   0.0000
  27 C27          3.7390    -1.8038     2.8580 C.ar         1    LIG   0.0000
  28 C28          2.5477    -2.0382     3.5343 C.ar         1    LIG   0.0000
  29 C29          1.8516    -0.9512     4.0513 C.ar         1    LIG   0.0000
  30 N30          2.3213     0.2958     3.8992 N.ar         1    LIG   0.0000
  31 N31          0.7817     3.3593     1.5719 N.ar         1    LIG   0.0000
  32 C32          0.1137     4.5220     1.5748 C.ar         1    LIG   0.0000
  33 H           -2.7922     5.7937     0.4904 H            1    LIG   0.0000
  34 H           -2.0993     6.2245     1.9049 H            1    LIG   0.0000
  35 H           -1.3923     6.6345     0.4912 H            1    LIG   0.0000
  36 H           -2.5810     3.5421    -0.0546 H            1    LIG   0.0000
  37 H           -1.3571     1.4799    -0.0409 H            1    LIG   0.0000
  38 H            0.5000     0.1340     1.0000 H            1    LIG   0.0000
  39 H            0.0964     3.9837    -0.4197 H            1    LIG   0.0000
  40 H           -1.2390     3.6603    -2.3617 H            1    LIG   0.0000
  41 H            3.1690     1.8914    -2.2348 H            1    LIG   0.0000
  42 H            2.7210     0.7760    -4.4007 H            1    LIG   0.0000
  43 H            0.3583     3.3011    -6.0957 H            1    LIG   0.0000
  44 H           -0.5547     2.0109    -6.5062 H            1    LIG   0.0000
  45 H            3.1775     5.1525    -0.4445 H            1    LIG   0.0000
  46 H            4.5642     2.2372     3.7876 H            1    LIG   0.0000
  47 H            5.0669    -0.3244     2.2263 H            1    LIG   0.0000
  48 H            4.2570    -2.5698     2.4772 H            1    LIG   0.0000
  49 H            2.1986    -2.9685     3.6467 H            1    LIG   0.0000
  50 H            0.9927    -1.1006     4.5411 H            1    LIG   0.0000
  51 H            0.5215     5.3242     2.0110 H            1    LIG   0.0000
@<TRIPOS>BOND
   1        1        2 1
   2        2        3 ar
   3        3        4 ar
   4        4        5 ar
   5        5        6 1
   6        6        7 2
   7        7        8 1
   8        8        9 1
   9        9       10 1
  10       10       11 ar
  11       11       12 ar
  12       12       13 ar
  13       13       14 ar
  14       14       15 ar
  15       15       10 ar
  16       14       16 1
  17       16       17 am
  18       17       18 2
  19       17       19 1
  20       19       20 1
  21       20       13 1
  22        9       21 2
  23       21       22 1
  24       22       23 1
  25       23        8 2
  26       23       24 1
  27       24       25 1
  28       25       26 ar
  29       26       27 ar
  30       27       28 ar
  31       28       29 ar
  32       29       30 ar
  33       30       25 ar
  34        5       31 ar
  35       31       32 ar
  36       32        2 ar
  37        1       33 1
  38        1       34 1
  39        1       35 1
  40        3       36 1
  41        4       37 1
  42        6       38 1
  43       11       39 1
  44       12       40 1
  45       15       41 1
  46       16       42 1
  47       19       43 1
  48       19       44 1
  49       21       45 1
  50       24       46 1
  51       26       47 1
  52       27       48 1
  53       28       49 1
  54       29       50 1
  55       32       51 1

@<TRIPOS>MOLECULE

  51   55
SMALL
USER_CHARGES
@<TRIPOS>ATOM
   1 C1          -1.9305     5.9275     1.0025 C.3          1    LIG   0.0000
   2 C2          -1.1442     4.6246     1.0011 C.ar         1    LIG   0.0000
   3 C3          -1.8254     3.4126     1.0010 C.ar         1    LIG   0.0000
   4 C4          -1.1161     2.2161     1.0000 C.ar         1    LIG   0.0000
   5 C5           0.2751     2.2555     1.0000 C.ar         1    LIG   0.0000
   6 C6           1.0000     1.0000     1.0000 C.2          1    LIG   0.0000
   7 N7           2.2500     1.0000     1.0000 N.2          1    LIG   0.0000
   8 N8           2.7985     2.2318     1.0000 N.2          1    LIG   1.0000
   9 C9           2.5861     3.1593     0.0145 C.2          1    LIG   0.0000
  10 C10          1.7569     2.9684    -1.1598 C.ar         1    LIG   0.0000
  11 C11          1.9121     1.8394    -1.9569 C.ar         1    LIG   0.0000
  12 C12          1.1011     1.6740    -3.0741 C.ar         1    LIG   0.0000
  13 C13          0.1245     2.6030    -3.4214 C.ar         1    LIG   0.0000
  14 C14         -0.0103     3.7347    -2.6252 C.ar         1    LIG   0.0000
  15 C15          0.7950     3.9128    -1.5043 C.ar         1    LIG   0.0000
  16 N16         -0.9731     4.6802    -2.9914 N.am         1    LIG   0.0000
  17 C17         -2.0056     4.3566    -3.8798 C.2          1    LIG   0.0000
  18 O18         -2.8766     5.1583    -4.1898 O.2          1    LIG   0.0000
  19 C19         -1.9955     2.9490    -4.4538 C.3          1    LIG   0.0000
  20 O20         -0.6751     2.4249    -4.4982 O.3          1    LIG   0.0000
  21 C21          3.2122     4.3593     0.1634 C.2          1    LIG   0.0000
  22 S22          4.0688     4.1942     1.6279 S.3          1    LIG   0.0000
  23 C23          3.5854     2.6040     1.9829 C.2          1    LIG   0.0000
  24 N24          3.9540     1.8471     3.0980 N.pl3        1    LIG   0.0000
  25 C25          3.4692     0.5426     3.2499 C.ar         1    LIG   0.0000
  26 C26          4.2107    -0.5037     2.7107 C.ar         1    LIG   0.0000
  27 C27          3.7390    -1.8038     2.8580 C.ar         1    LIG   0.0000
  28 C28          2.5477    -2.0382     3.5343 C.ar         1    LIG   0.0000
  29 C29          1.8516    -0.9512     4.0513 C.ar         1    LIG   0.0000
  30 N30          2.3213     0.2958     3.8992 N.ar         1    LIG   0.0000
  31 N31          0.9144     3.4360     1.0000 N.ar         1    LIG   0.0000
  32 C32          0.2474     4.5992     1.0010 C.ar         1    LIG   0.0000
  33 H           -2.9099     5.7258     1.0023 H            1    LIG   0.0000
  34 H           -1.6991     6.4556     1.8196 H            1    LIG   0.0000
  35 H           -1.6992     6.4574     0.1866 H            1    LIG   0.0000
  36 H           -2.8253     3.4011     1.0018 H            1    LIG   0.0000
  37 H           -1.5988     1.3403     0.9992 H            1    LIG   0.0000
  38 H            0.5000     0.1340     1.0000 H            1    LIG   0.0000
  39 H            2.6016     1.1521    -1.7284 H            1    LIG   0.0000
  40 H            1.2232     0.8626    -3.6456 H            1    LIG   0.0000
  41 H            0.6808     4.7300    -0.9392 H            1    LIG   0.0000
  42 H           -0.9233     5.6041    -2.6120 H            1    LIG   0.0000
  43 H           -2.5625     2.3581    -3.8801 H            1    LIG   0.0000
  44 H           -2.3693     2.9716    -5.3811 H            1    LIG   0.0000
  45 H            3.1775     5.1525    -0.4445 H            1    LIG   0.0000
  46 H            4.5642     2.2372     3.7876 H            1    LIG   0.0000
  47 H            5.0669    -0.3244     2.2263 H            1    LIG   0.0000
  48 H            4.2570    -2.5698     2.4772 H            1    LIG   0.0000
  49 H            2.1986    -2.9685     3.6467 H            1    LIG   0.0000
  50 H            0.9927    -1.1006     4.5411 H            1    LIG   0.0000
  51 H            0.7565     5.4599     1.0017 H            1    LIG   0.0000
@<TRIPOS>BOND
   1        1        2 1
   2        2        3 ar
   3        3        4 ar
   4        4        5 ar
   5        5        6 1
   6        6        7 2
   7        7        8 1
   8        8        9 1
   9        9       10 1
  10       10       11 ar
  11       11       12 ar
  12       12       13 ar
  13       13       14 ar
  14       14       15 ar
  15       15       10 ar
  16       14       16 1
  17       16       17 am
  18       17       18 2
  19       17       19 1
  20       19       20 1
  21       20       13 1
  22        9       21 2
  23       21       22 1
  24       22       23 1
  25       23        8 2
  26       23       24 1
  27       24       25 1
  28       25       26 ar
  29       26       27 ar
  30       27       28 ar
  31       28       29 ar
  32       29       30 ar
  33       30       25 ar
  34        5       31 ar
  35       31       32 ar
  36       32        2 ar
  37        1       33 1
  38        1       34 1
  39        1       35 1
  40        3       36 1
  41        4       37 1
  42        6       38 1
  43       11       39 1
  44       12       40 1
  45       15       41 1
  46       16       42 1
  47       19       43 1
  48       19       44 1
  49       21       45 1
  50       24       46 1
  51       26       47 1
  52       27       48 1
  53       28       49 1
  54       29       50 1
  55       32       51 1

@<TRIPOS>MOLECULE

  51   55
SMALL
USER_CHARGES
@<TRIPOS>ATOM
   1 C1          -1.9003     5.9450     0.9371 C.3          1    LIG   0.0000
   2 C2          -1.1257     4.6353     0.9619 C.ar         1    LIG   0.0000
   3 C3          -1.2890     3.7223    -0.0738 C.ar         1    LIG   0.0000
   4 C4          -0.5859     2.5223    -0.0605 C.ar         1    LIG   0.0000
   5 C5           0.2751     2.2555     1.0000 C.ar         1    LIG   0.0000
   6 C6           1.0000     1.0000     1.0000 C.2          1    LIG   0.0000
   7 N7           2.2500     1.0000     1.0000 N.2          1    LIG   0.0000
   8 N8           2.7985     2.2318     1.0000 N.2          1    LIG   1.0000
   9 C9           2.7504     3.0861    -0.0697 C.2          1    LIG   0.0000
  10 C10          2.1169     2.8082    -1.3442 C.ar         1    LIG   0.0000
  11 C11          1.4870     1.5886    -1.5677 C.ar         1    LIG   0.0000
  12 C12          0.8801     1.3468    -2.7950 C.ar         1    LIG   0.0000
  13 C13          0.8734     2.2943    -3.8147 C.ar         1    LIG   0.0000
  14 C14          1.5197     3.5034    -3.5842 C.ar         1    LIG   0.0000
  15 C15          2.1312     3.7584    -2.3604 C.ar         1    LIG   0.0000
  16 N16          1.5358     4.4433    -4.6194 N.am         1    LIG   0.0000
  17 C17          0.6446     4.3519    -5.6952 C.2          1    LIG   0.0000
  18 O18          0.6197     5.1801    -6.5958 O.2          1    LIG   0.0000
  19 C19         -0.3004     3.1612    -5.6989 C.3          1    LIG   0.0000
  20 O20          0.2626     2.0598    -4.9989 O.3          1    LIG   0.0000
  21 C21          3.3517     4.2972     0.0915 C.2          1    LIG   0.0000
  22 S22          3.9642     4.2407     1.6813 S.3          1    LIG   0.0000
  23 C23          3.4216     2.6769     2.0666 C.2          1    LIG   0.0000
  24 N24          3.6044     2.0028     3.2766 N.pl3        1    LIG   0.0000
  25 C25          4.7365     1.2017     3.4675 C.ar         1    LIG   0.0000
  26 C26          5.8769     1.7888     4.0058 C.ar         1    LIG   0.0000
  27 C27          7.0065     1.0012     4.2015 C.ar         1    LIG   0.0000
  28 C28          6.9814    -0.3462     3.8615 C.ar         1    LIG   0.0000
  29 C29          5.8117    -0.8756     3.3277 C.ar         1    LIG   0.0000
  30 N30          4.7322    -0.1009     3.1454 N.ar         1    LIG   0.0000
  31 N31          0.4191     3.1500     1.9906 N.ar         1    LIG   0.0000
  32 C32         -0.2504     4.3118     1.9945 C.ar         1    LIG   0.0000
  33 H           -2.4686     5.9806     0.1150 H            1    LIG   0.0000
  34 H           -2.4828     6.0031     1.7478 H            1    LIG   0.0000
  35 H           -1.2585     6.7118     0.9320 H            1    LIG   0.0000
  36 H           -1.9120     3.9284    -0.8284 H            1    LIG   0.0000
  37 H           -0.6973     1.8608    -0.8021 H            1    LIG   0.0000
  38 H            0.5000     0.1340     1.0000 H            1    LIG   0.0000
  39 H            1.4706     0.8911    -0.8513 H            1    LIG   0.0000
  40 H            0.4346     0.4650    -2.9500 H            1    LIG   0.0000
  41 H            2.5868     4.6358    -2.2095 H            1    LIG   0.0000
  42 H            2.1956     5.1941    -4.5908 H            1    LIG   0.0000
  43 H           -1.1589     3.4239    -5.2584 H            1    LIG   0.0000
  44 H           -0.4804     2.8898    -6.6444 H            1    LIG   0.0000
  45 H            3.4184     5.0453    -0.5687 H            1    LIG   0.0000
  46 H            2.9266     2.0925     4.0064 H            1    LIG   0.0000
  47 H            5.8845     2.7591     4.2476 H            1    LIG   0.0000
  48 H            7.8366     1.4043     4.5868 H            1    LIG   0.0000
  49 H            7.7871    -0.9225     3.9979 H            1    LIG   0.0000
  50 H            5.7750    -1.8431     3.0774 H            1    LIG   0.0000
  51 H           -0.1191     4.9544     2.7494 H            1    LIG   0.0000
@<TRIPOS>BOND
   1        1        2 1
   2        2        3 ar
   3        3        4 ar
   4        4        5 ar
   5        5        6 1
   6        6        7 2
   7        7        8 1
   8        8        9 1
   9        9       10 1
  10       10       11 ar
  11       11       12 ar
  12       12       13 ar
  13       13       14 ar
  14       14       15 ar
  15       15       10 ar
  16       14       16 1
  17       16       17 am
  18       17       18 2
  19       17       19 1
  20       19       20 1
  21       20       13 1
  22        9       21 2
  23       21       22 1
  24       22       23 1
  25       23        8 2
  26       23       24 1
  27       24       25 1
  28       25       26 ar
  29       26       27 ar
  30       27       28 ar
  31       28       29 ar
  32       29       30 ar
  33       30       25 ar
  34        5       31 ar
  35       31       32 ar
  36       32        2 ar
  37        1       33 1
  38        1       34 1
  39        1       35 1
  40        3       36 1
  41        4       37 1
  42        6       38 1
  43       11       39 1
  44       12       40 1
  45       15       41 1
  46       16       42 1
  47       19       43 1
  48       19       44 1
  49       21       45 1
  50       24       46 1
  51       26       47 1
  52       27       48 1
  53       28       49 1
  54       29       50 1
  55       32       51 1

@<TRIPOS>MOLECULE

  51   55
SMALL
USER_CHARGES
@<TRIPOS>ATOM
   1 C1          -1.9208     5.9331     1.0393 C.3          1    LIG   0.0000
   2 C2          -1.1386     4.6278     1.0233 C.ar         1    LIG   0.0000
   3 C3          -1.6810     3.4960     1.6212 C.ar         1    LIG   0.0000
   4 C4          -0.9741     2.2982     1.6123 C.ar         1    LIG   0.0000
   5 C5           0.2751     2.2555     1.0000 C.ar         1    LIG   0.0000
   6 C6           1.0000     1.0000     1.0000 C.2          1    LIG   0.0000
   7 N7           2.2500     1.0000     1.0000 N.2          1    LIG   0.0000
   8 N8           2.7985     2.2318     1.0000 N.2          1    LIG   1.0000
   9 C9           2.3733     3.2540     1.8068 C.2          1    LIG   0.0000
  10 C10          1.2898     3.1764     2.7674 C.ar         1    LIG   0.0000
  11 C11          0.4062     4.2393     2.9213 C.ar         1    LIG   0.0000
  12 C12         -0.6296     4.1398     3.8435 C.ar         1    LIG   0.0000
  13 C13         -0.8202     3.0001     4.6195 C.ar         1    LIG   0.0000
  14 C14          0.0790     1.9507     4.4672 C.ar         1    LIG   0.0000
  15 C15          1.1202     2.0371     3.5479 C.ar         1    LIG   0.0000
  16 N16         -0.0977     0.8177     5.2673 N.am         1    LIG   0.0000
  17 C17         -1.3124     0.5727     5.9189 C.2          1    LIG   0.0000
  18 O18         -1.4997    -0.4277     6.5983 O.2          1    LIG   0.0000
  19 C19         -2.4016     1.6192     5.7474 C.3          1    LIG   0.0000
  20 O20         -1.8429     2.9024     5.4999 O.3          1    LIG   0.0000
  21 C21          3.0344     4.4385     1.6873 C.2          1    LIG   0.0000
  22 S22          4.2062     4.1330     0.4874 S.3          1    LIG   0.0000
  23 C23          3.8001     2.5084     0.1974 C.2          1    LIG   0.0000
  24 N24          4.4114     1.6435    -0.7139 N.pl3        1    LIG   0.0000
  25 C25          3.9597     0.3242    -0.8379 C.ar         1    LIG   0.0000
  26 C26          2.9571     0.0545    -1.7637 C.ar         1    LIG   0.0000
  27 C27          2.5027    -1.2534    -1.8963 C.ar         1    LIG   0.0000
  28 C28          3.0502    -2.2619    -1.1122 C.ar         1    LIG   0.0000
  29 C29          4.0500    -1.9300    -0.2047 C.ar         1    LIG   0.0000
  30 N30          4.4753    -0.6633    -0.0899 N.ar         1    LIG   0.0000
  31 N31          0.7817     3.3593     0.4281 N.ar         1    LIG   0.0000
  32 C32          0.1146     4.5226     0.4270 C.ar         1    LIG   0.0000
  33 H           -2.7902     5.7949     1.5136 H            1    LIG   0.0000
  34 H           -1.3895     6.6343     1.5146 H            1    LIG   0.0000
  35 H           -2.0967     6.2278     0.1000 H            1    LIG   0.0000
  36 H           -2.5795     3.5430     2.0577 H            1    LIG   0.0000
  37 H           -1.3578     1.4795     2.0395 H            1    LIG   0.0000
  38 H            0.5000     0.1340     1.0000 H            1    LIG   0.0000
  39 H            0.5149     5.0685     2.3731 H            1    LIG   0.0000
  40 H           -1.2569     4.9108     3.9526 H            1    LIG   0.0000
  41 H            1.7546     1.2707     3.4470 H            1    LIG   0.0000
  42 H            0.6570     0.1707     5.3761 H            1    LIG   0.0000
  43 H           -2.9834     1.3618     4.9759 H            1    LIG   0.0000
  44 H           -2.9519     1.6578     6.5815 H            1    LIG   0.0000
  45 H            2.8707     5.2891     2.1868 H            1    LIG   0.0000
  46 H            5.1715     1.9668    -1.2775 H            1    LIG   0.0000
  47 H            2.5702     0.7873    -2.3234 H            1    LIG   0.0000
  48 H            1.7823    -1.4680    -2.5558 H            1    LIG   0.0000
  49 H            2.7318    -3.2059    -1.1988 H            1    LIG   0.0000
  50 H            4.4558    -2.6425     0.3677 H            1    LIG   0.0000
  51 H            0.5230     5.3250    -0.0080 H            1    LIG   0.0000
@<TRIPOS>BOND
   1        1        2 1
   2        2        3 ar
   3        3        4 ar
   4        4        5 ar
   5        5        6 1
   6        6        7 2
   7        7        8 1
   8        8        9 1
   9        9       10 1
  10       10       11 ar
  11       11       12 ar
  12       12       13 ar
  13       13       14 ar
  14       14       15 ar
  15       15       10 ar
  16       14       16 1
  17       16       17 am
  18       17       18 2
  19       17       19 1
  20       19       20 1
  21       20       13 1
  22        9       21 2
  23       21       22 1
  24       22       23 1
  25       23        8 2
  26       23       24 1
  27       24       25 1
  28       25       26 ar
  29       26       27 ar
  30       27       28 ar
  31       28       29 ar
  32       29       30 ar
  33       30       25 ar
  34        5       31 ar
  35       31       32 ar
  36       32        2 ar
  37        1       33 1
  38        1       34 1
  39        1       35 1
  40        3       36 1
  41        4       37 1
  42        6       38 1
  43       11       39 1
  44       12       40 1
  45       15       41 1
  46       16       42 1
  47       19       43 1
  48       19       44 1
  49       21       45 1
  50       24       46 1
  51       26       47 1
  52       27       48 1
  53       28       49 1
  54       29       50 1
  55       32       51 1

@<TRIPOS>MOLECULE

  51   55
SMALL
USER_CHARGES
@<TRIPOS>ATOM
   1 C1          -1.9305     5.9275     1.0025 C.3          1    LIG   0.0000
   2 C2          -1.1442     4.6246     1.0011 C.ar         1    LIG   0.0000
   3 C3          -1.8254     3.4126     1.0010 C.ar         1    LIG   0.0000
   4 C4          -1.1161     2.2161     1.0000 C.ar         1    LIG   0.0000
   5 C5           0.2751     2.2555     1.0000 C.ar         1    LIG   0.0000
   6 C6           1.0000     1.0000     1.0000 C.2          1    LIG   0.0000
   7 N7           2.2500     1.0000     1.0000 N.2          1    LIG   0.0000
   8 N8           2.7985     2.2318     1.0000 N.2          1    LIG   1.0000
   9 C9           2.5891     3.1579     1.9875 C.2          1    LIG   0.0000
  10 C10          1.7626     2.9659     3.1634 C.ar         1    LIG   0.0000
  11 C11          1.9167     1.8342     3.9567 C.ar         1    LIG   0.0000
  12 C12          1.1180     1.6746     5.0835 C.ar         1    LIG   0.0000
  13 C13          0.1662     2.6205     5.4537 C.ar         1    LIG   0.0000
  14 C14          0.0114     3.7398     4.6439 C.ar         1    LIG   0.0000
  15 C15          0.8042     3.9120     3.5131 C.ar         1    LIG   0.0000
  16 N16         -0.9642     4.6754     5.0021 N.am         1    LIG   0.0000
  17 C17         -1.5062     4.6993     6.2926 C.2          1    LIG   0.0000
  18 O18         -2.3376     5.5285     6.6373 O.2          1    LIG   0.0000
  19 C19         -1.0143     3.6339     7.2590 C.3          1    LIG   0.0000
  20 O20         -0.5929     2.4684     6.5633 O.3          1    LIG   0.0000
  21 C21          3.2182     4.3567     1.8403 C.2          1    LIG   0.0000
  22 S22          4.0690     4.1941     0.3722 S.3          1    LIG   0.0000
  23 C23          3.5854     2.6040     0.0171 C.2          1    LIG   0.0000
  24 N24          3.9528     1.8476    -1.0988 N.pl3        1    LIG   0.0000
  25 C25          3.4680     0.5432    -1.2506 C.ar         1    LIG   0.0000
  26 C26          2.2716     0.3597    -1.9362 C.ar         1    LIG   0.0000
  27 C27          1.7822    -0.9326    -2.0946 C.ar         1    LIG   0.0000
  28 C28          2.4867    -2.0110    -1.5728 C.ar         1    LIG   0.0000
  29 C29          3.6769    -1.7639    -0.8977 C.ar         1    LIG   0.0000
  30 N30          4.1332    -0.5110    -0.7540 N.ar         1    LIG   0.0000
  31 N31          0.9144     3.4360     1.0000 N.ar         1    LIG   0.0000
  32 C32          0.2474     4.5992     1.0010 C.ar         1    LIG   0.0000
  33 H           -2.9099     5.7258     1.0023 H            1    LIG   0.0000
  34 H           -1.6991     6.4556     1.8196 H            1    LIG   0.0000
  35 H           -1.6992     6.4574     0.1866 H            1    LIG   0.0000
  36 H           -2.8253     3.4011     1.0018 H            1    LIG   0.0000
  37 H           -1.5988     1.3403     0.9992 H            1    LIG   0.0000
  38 H            0.5000     0.1340     1.0000 H            1    LIG   0.0000
  39 H            2.5967     1.1406     3.7187 H            1    LIG   0.0000
  40 H            1.2307     0.8550     5.6453 H            1    LIG   0.0000
  41 H            0.6835     4.7259     2.9449 H            1    LIG   0.0000
  42 H           -1.2803     5.3392     4.3243 H            1    LIG   0.0000
  43 H           -0.2442     3.9983     7.7826 H            1    LIG   0.0000
  44 H           -1.7568     3.3912     7.8833 H            1    LIG   0.0000
  45 H            3.1880     5.1479     2.4511 H            1    LIG   0.0000
  46 H            4.5621     2.2381    -1.7889 H            1    LIG   0.0000
  47 H            1.7726     1.1424    -2.3083 H            1    LIG   0.0000
  48 H            0.9236    -1.0857    -2.5839 H            1    LIG   0.0000
  49 H            2.1450    -2.9447    -1.6806 H            1    LIG   0.0000
  50 H            4.1974    -2.5275    -0.5158 H            1    LIG   0.0000
  51 H            0.7565     5.4599     1.0017 H            1    LIG   0.0000
@<TRIPOS>BOND
   1        1        2 1
   2        2        3 ar
   3        3        4 ar
   4        4        5 ar
   5        5        6 1
   6        6        7 2
   7        7        8 1
   8        8        9 1
   9        9       10 1
  10       10       11 ar
  11       11       12 ar
  12       12       13 ar
  13       13       14 ar
  14       14       15 ar
  15       15       10 ar
  16       14       16 1
  17       16       17 am
  18       17       18 2
  19       17       19 1
  20       19       20 1
  21       20       13 1
  22        9       21 2
  23       21       22 1
  24       22       23 1
  25       23        8 2
  26       23       24 1
  27       24       25 1
  28       25       26 ar
  29       26       27 ar
  30       27       28 ar
  31       28       29 ar
  32       29       30 ar
  33       30       25 ar
  34        5       31 ar
  35       31       32 ar
  36       32        2 ar
  37        1       33 1
  38        1       34 1
  39        1       35 1
  40        3       36 1
  41        4       37 1
  42        6       38 1
  43       11       39 1
  44       12       40 1
  45       15       41 1
  46       16       42 1
  47       19       43 1
  48       19       44 1
  49       21       45 1
  50       24       46 1
  51       26       47 1
  52       27       48 1
  53       28       49 1
  54       29       50 1
  55       32       51 1

@<TRIPOS>MOLECULE

  51   55
SMALL
USER_CHARGES
@<TRIPOS>ATOM
   1 C1          -1.9305     5.9275     1.0025 C.3          1    LIG   0.0000
   2 C2          -1.1442     4.6246     1.0011 C.ar         1    LIG   0.0000
   3 C3          -1.8254     3.4126     1.0010 C.ar         1    LIG   0.0000
   4 C4          -1.1161     2.2161     1.0000 C.ar         1    LIG   0.0000
   5 C5           0.2751     2.2555     1.0000 C.ar         1    LIG   0.0000
   6 C6           1.0000     1.0000     1.0000 C.2          1    LIG   0.0000
   7 N7           2.2500     1.0000     1.0000 N.2          1    LIG   0.0000
   8 N8           2.7985     2.2318     1.0000 N.2          1    LIG   1.0000
   9 C9           3.6267     2.6959     0.0125 C.2          1    LIG   0.0000
  10 C10          4.0371     1.9532    -1.1634 C.ar         1    LIG   0.0000
  11 C11          4.5485     0.6657    -1.0415 C.ar         1    LIG   0.0000
  12 C12          4.9290    -0.0303    -2.1834 C.ar         1    LIG   0.0000
  13 C13          4.8073     0.5181    -3.4570 C.ar         1    LIG   0.0000
  14 C14          4.3091     1.8116    -3.5641 C.ar         1    LIG   0.0000
  15 C15          3.9246     2.5195    -2.4293 C.ar         1    LIG   0.0000
  16 N16          4.2134     2.3710    -4.8420 N.am         1    LIG   0.0000
  17 C17          4.2545     1.5695    -5.9891 C.2          1    LIG   0.0000
  18 O18          4.1411     2.0338    -7.1156 O.2          1    LIG   0.0000
  19 C19          4.4530     0.0780    -5.7723 C.3          1    LIG   0.0000
  20 O20          5.1601    -0.1731    -4.5652 O.3          1    LIG   0.0000
  21 C21          4.0967     3.9655     0.1597 C.2          1    LIG   0.0000
  22 S22          3.4065     4.4890     1.6278 S.3          1    LIG   0.0000
  23 C23          2.5485     3.0657     1.9829 C.2          1    LIG   0.0000
  24 N24          1.7405     2.8326     3.0988 N.pl3        1    LIG   0.0000
  25 C25          1.0955     1.5995     3.2506 C.ar         1    LIG   0.0000
  26 C26         -0.2093     1.5925     3.7329 C.ar         1    LIG   0.0000
  27 C27         -0.8601     0.3727     3.8854 C.ar         1    LIG   0.0000
  28 C28         -0.2065    -0.8092     3.5574 C.ar         1    LIG   0.0000
  29 C29          1.0974    -0.7375     3.0798 C.ar         1    LIG   0.0000
  30 N30          1.7095     0.4476     2.9397 N.ar         1    LIG   0.0000
  31 N31          0.9144     3.4360     1.0000 N.ar         1    LIG   0.0000
  32 C32          0.2474     4.5992     1.0010 C.ar         1    LIG   0.0000
  33 H           -2.9099     5.7258     1.0023 H            1    LIG   0.0000
  34 H           -1.6991     6.4556     1.8196 H            1    LIG   0.0000
  35 H           -1.6992     6.4574     0.1866 H            1    LIG   0.0000
  36 H           -2.8253     3.4011     1.0018 H            1    LIG   0.0000
  37 H           -1.5988     1.3403     0.9992 H            1    LIG   0.0000
  38 H            0.5000     0.1340     1.0000 H            1    LIG   0.0000
  39 H            4.6417     0.2437    -0.1396 H            1    LIG   0.0000
  40 H            5.3015    -0.9532    -2.0868 H            1    LIG   0.0000
  41 H            3.5628     3.4468    -2.5249 H            1    LIG   0.0000
  42 H            4.1139     3.3614    -4.9383 H            1    LIG   0.0000
  43 H            3.5589    -0.3673    -5.7259 H            1    LIG   0.0000
  44 H            4.9729    -0.2973    -6.5396 H            1    LIG   0.0000
  45 H            4.7048     4.4725    -0.4511 H            1    LIG   0.0000
  46 H            1.6230     3.5467     3.7889 H            1    LIG   0.0000
  47 H           -0.6709     2.4485     3.9656 H            1    LIG   0.0000
  48 H           -1.7980     0.3461     4.2311 H            1    LIG   0.0000
  49 H           -0.6641    -1.6921     3.6626 H            1    LIG   0.0000
  50 H            1.5834    -1.5775     2.8384 H            1    LIG   0.0000
  51 H            0.7565     5.4599     1.0017 H            1    LIG   0.0000
@<TRIPOS>BOND
   1        1        2 1
   2        2        3 ar
   3        3        4 ar
   4        4        5 ar
   5        5        6 1
   6        6        7 2
   7        7        8 1
   8        8        9 1
   9        9       10 1
  10       10       11 ar
  11       11       12 ar
  12       12       13 ar
  13       13       14 ar
  14       14       15 ar
  15       15       10 ar
  16       14       16 1
  17       16       17 am
  18       17       18 2
  19       17       19 1
  20       19       20 1
  21       20       13 1
  22        9       21 2
  23       21       22 1
  24       22       23 1
  25       23        8 2
  26       23       24 1
  27       24       25 1
  28       25       26 ar
  29       26       27 ar
  30       27       28 ar
  31       28       29 ar
  32       29       30 ar
  33       30       25 ar
  34        5       31 ar
  35       31       32 ar
  36       32        2 ar
  37        1       33 1
  38        1       34 1
  39        1       35 1
  40        3       36 1
  41        4       37 1
  42        6       38 1
  43       11       39 1
  44       12       40 1
  45       15       41 1
  46       16       42 1
  47       19       43 1
  48       19       44 1
  49       21       45 1
  50       24       46 1
  51       26       47 1
  52       27       48 1
  53       28       49 1
  54       29       50 1
  55       32       51 1

@<TRIPOS>MOLECULE

  51   55
SMALL
USER_CHARGES
@<TRIPOS>ATOM
   1 C1          -1.9305     5.9275     1.0025 C.3          1    LIG   0.0000
   2 C2          -1.1442     4.6246     1.0011 C.ar         1    LIG   0.0000
   3 C3          -1.8254     3.4126     1.0010 C.ar         1    LIG   0.0000
   4 C4          -1.1161     2.2161     1.0000 C.ar         1    LIG   0.0000
   5 C5           0.2751     2.2555     1.0000 C.ar         1    LIG   0.0000
   6 C6           1.0000     1.0000     1.0000 C.2          1    LIG   0.0000
   7 N7           2.2500     1.0000     1.0000 N.2          1    LIG   0.0000
   8 N8           2.7985     2.2318     1.0000 N.2          1    LIG   1.0000
   9 C9           3.6267     2.6959     0.0125 C.2          1    LIG   0.0000
  10 C10          4.0371     1.9532    -1.1634 C.ar         1    LIG   0.0000
  11 C11          4.7092     2.5903    -2.2010 C.ar         1    LIG   0.0000
  12 C12          5.0994     1.8566    -3.3157 C.ar         1    LIG   0.0000
  13 C13          4.8460     0.4924    -3.4272 C.ar         1    LIG   0.0000
  14 C14          4.1600    -0.1294    -2.3901 C.ar         1    LIG   0.0000
  15 C15          3.7636     0.5931    -1.2687 C.ar         1    LIG   0.0000
  16 N16          3.8822    -1.4940    -2.5164 N.am         1    LIG   0.0000
  17 C17          4.5668    -2.2905    -3.4421 C.2          1    LIG   0.0000
  18 O18          4.3624    -3.4924    -3.5479 O.2          1    LIG   0.0000
  19 C19          5.5856    -1.5878    -4.3249 C.3          1    LIG   0.0000
  20 O20          5.2473    -0.2192    -4.5057 O.3          1    LIG   0.0000
  21 C21          4.0967     3.9655     0.1597 C.2          1    LIG   0.0000
  22 S22          3.4065     4.4890     1.6278 S.3          1    LIG   0.0000
  23 C23          2.5485     3.0657     1.9829 C.2          1    LIG   0.0000
  24 N24          1.7405     2.8326     3.0988 N.pl3        1    LIG   0.0000
  25 C25          2.2952     2.2886     4.2633 C.ar         1    LIG   0.0000
  26 C26          3.6551     1.9958     4.2718 C.ar         1    LIG   0.0000
  27 C27          4.2167     1.4570     5.4245 C.ar         1    LIG   0.0000
  28 C28          3.4217     1.2216     6.5400 C.ar         1    LIG   0.0000
  29 C29          2.0689     1.5354     6.4705 C.ar         1    LIG   0.0000
  30 N30          1.5445     2.0537     5.3503 N.ar         1    LIG   0.0000
  31 N31          0.9144     3.4360     1.0000 N.ar         1    LIG   0.0000
  32 C32          0.2474     4.5992     1.0010 C.ar         1    LIG   0.0000
  33 H           -2.9099     5.7258     1.0023 H            1    LIG   0.0000
  34 H           -1.6991     6.4556     1.8196 H            1    LIG   0.0000
  35 H           -1.6992     6.4574     0.1866 H            1    LIG   0.0000
  36 H           -2.8253     3.4011     1.0018 H            1    LIG   0.0000
  37 H           -1.5988     1.3403     0.9992 H            1    LIG   0.0000
  38 H            0.5000     0.1340     1.0000 H            1    LIG   0.0000
  39 H            4.9103     3.5683    -2.1457 H            1    LIG   0.0000
  40 H            5.5767     2.3233    -4.0602 H            1    LIG   0.0000
  41 H            3.2761     0.1288    -0.5293 H            1    LIG   0.0000
  42 H            3.1819    -1.9084    -1.9351 H            1    LIG   0.0000
  43 H            6.4866    -1.6476    -3.8954 H            1    LIG   0.0000
  44 H            5.6109    -2.0387    -5.2171 H            1    LIG   0.0000
  45 H            4.7048     4.4725    -0.4511 H            1    LIG   0.0000
  46 H            0.7660     3.0545     3.0656 H            1    LIG   0.0000
  47 H            4.2185     2.1695     3.4640 H            1    LIG   0.0000
  48 H            5.1923     1.2391     5.4508 H            1    LIG   0.0000
  49 H            3.8142     0.8348     7.3745 H            1    LIG   0.0000
  50 H            1.4815     1.3730     7.2634 H            1    LIG   0.0000
  51 H            0.7565     5.4599     1.0017 H            1    LIG   0.0000
@<TRIPOS>BOND
   1        1        2 1
   2        2        3 ar
   3        3        4 ar
   4        4        5 ar
   5        5        6 1
   6        6        7 2
   7        7        8 1
   8        8        9 1
   9        9       10 1
  10       10       11 ar
  11       11       12 ar
  12       12       13 ar
  13       13       14 ar
  14       14       15 ar
  15       15       10 ar
  16       14       16 1
  17       16       17 am
  18       17       18 2
  19       17       19 1
  20       19       20 1
  21       20       13 1
  22        9       21 2
  23       21       22 1
  24       22       23 1
  25       23        8 2
  26       23       24 1
  27       24       25 1
  28       25       26 ar
  29       26       27 ar
  30       27       28 ar
  31       28       29 ar
  32       29       30 ar
  33       30       25 ar
  34        5       31 ar
  35       31       32 ar
  36       32        2 ar
  37        1       33 1
  38        1       34 1
  39        1       35 1
  40        3       36 1
  41        4       37 1
  42        6       38 1
  43       11       39 1
  44       12       40 1
  45       15       41 1
  46       16       42 1
  47       19       43 1
  48       19       44 1
  49       21       45 1
  50       24       46 1
  51       26       47 1
  52       27       48 1
  53       28       49 1
  54       29       50 1
  55       32       51 1

@<TRIPOS>MOLECULE

  51   55
SMALL
USER_CHARGES
@<TRIPOS>ATOM
   1 C1          -1.9230     5.9318     0.9651 C.3          1    LIG   0.0000
   2 C2          -1.1395     4.6273     0.9786 C.ar         1    LIG   0.0000
   3 C3          -1.6819     3.4954     0.3806 C.ar         1    LIG   0.0000
   4 C4          -0.9740     2.2982     0.3877 C.ar         1    LIG   0.0000
   5 C5           0.2751     2.2555     1.0000 C.ar         1    LIG   0.0000
   6 C6           1.0000     1.0000     1.0000 C.2          1    LIG   0.0000
   7 N7           2.2500     1.0000     1.0000 N.2          1    LIG   0.0000
   8 N8           2.7985     2.2318     1.0000 N.2          1    LIG   1.0000
   9 C9           3.1097     2.9261     2.1391 C.2          1    LIG   0.0000
  10 C10          2.9031     2.4581     3.4960 C.ar         1    LIG   0.0000
  11 C11          1.6697     1.9474     3.8858 C.ar         1    LIG   0.0000
  12 C12          1.4967     1.4979     5.1901 C.ar         1    LIG   0.0000
  13 C13          2.5265     1.5336     6.1259 C.ar         1    LIG   0.0000
  14 C14          3.7499     2.0605     5.7281 C.ar         1    LIG   0.0000
  15 C15          3.9367     2.5141     4.4257 C.ar         1    LIG   0.0000
  16 N16          4.7749     2.1211     6.6774 N.am         1    LIG   0.0000
  17 C17          4.7202     1.3621     7.8525 C.2          1    LIG   0.0000
  18 O18          5.6199     1.3754     8.6819 O.2          1    LIG   0.0000
  19 C19          3.4763     0.5129     8.0588 C.3          1    LIG   0.0000
  20 O20          2.3568     1.0750     7.3874 O.3          1    LIG   0.0000
  21 C21          3.6609     4.1596     1.9682 C.2          1    LIG   0.0000
  22 S22          3.7379     4.3415     0.2750 S.3          1    LIG   0.0000
  23 C23          3.0669     2.8348    -0.1350 C.2          1    LIG   0.0000
  24 N24          2.8460     2.3404    -1.4230 N.pl3        1    LIG   0.0000
  25 C25          1.6277     2.5858    -2.0675 C.ar         1    LIG   0.0000
  26 C26          0.6629     3.3280    -1.3941 C.ar         1    LIG   0.0000
  27 C27         -0.5502     3.5794    -2.0264 C.ar         1    LIG   0.0000
  28 C28         -0.7799     3.0922    -3.3076 C.ar         1    LIG   0.0000
  29 C29          0.2233     2.3571    -3.9292 C.ar         1    LIG   0.0000
  30 N30          1.3867     2.1240    -3.3040 N.ar         1    LIG   0.0000
  31 N31          0.7817     3.3593     1.5719 N.ar         1    LIG   0.0000
  32 C32          0.1137     4.5220     1.5748 C.ar         1    LIG   0.0000
  33 H           -2.7922     5.7937     0.4904 H            1    LIG   0.0000
  34 H           -2.0993     6.2245     1.9049 H            1    LIG   0.0000
  35 H           -1.3923     6.6345     0.4912 H            1    LIG   0.0000
  36 H           -2.5810     3.5421    -0.0546 H            1    LIG   0.0000
  37 H           -1.3571     1.4799    -0.0409 H            1    LIG   0.0000
  38 H            0.5000     0.1340     1.0000 H            1    LIG   0.0000
  39 H            0.9132     1.9038     3.2332 H            1    LIG   0.0000
  40 H            0.6050     1.1378     5.4643 H            1    LIG   0.0000
  41 H            4.8250     2.8849     4.1547 H            1    LIG   0.0000
  42 H            5.5610     2.7171     6.5139 H            1    LIG   0.0000
  43 H            3.6447    -0.4055     7.7007 H            1    LIG   0.0000
  44 H            3.2768     0.4578     9.0371 H            1    LIG   0.0000
  45 H            3.9524     4.8075     2.6718 H            1    LIG   0.0000
  46 H            3.5581     1.8113    -1.8845 H            1    LIG   0.0000
  47 H            0.8383     3.6744    -0.4726 H            1    LIG   0.0000
  48 H           -1.2570     4.1105    -1.5591 H            1    LIG   0.0000
  49 H           -1.6480     3.2667    -3.7724 H            1    LIG   0.0000
  50 H            0.0760     1.9988    -4.8512 H            1    LIG   0.0000
  51 H            0.5215     5.3242     2.0110 H            1    LIG   0.0000
@<TRIPOS>BOND
   1        1        2 1
   2        2        3 ar
   3        3        4 ar
   4        4        5 ar
   5        5        6 1
   6        6        7 2
   7        7        8 1
   8        8        9 1
   9        9       10 1
  10       10       11 ar
  11       11       12 ar
  12       12       13 ar
  13       13       14 ar
  14       14       15 ar
  15       15       10 ar
  16       14       16 1
  17       16       17 am
  18       17       18 2
  19       17       19 1
  20       19       20 1
  21       20       13 1
  22        9       21 2
  23       21       22 1
  24       22       23 1
  25       23        8 2
  26       23       24 1
  27       24       25 1
  28       25       26 ar
  29       26       27 ar
  30       27       28 ar
  31       28       29 ar
  32       29       30 ar
  33       30       25 ar
  34        5       31 ar
  35       31       32 ar
  36       32        2 ar
  37        1       33 1
  38        1       34 1
  39        1       35 1
  40        3       36 1
  41        4       37 1
  42        6       38 1
  43       11       39 1
  44       12       40 1
  45       15       41 1
  46       16       42 1
  47       19       43 1
  48       19       44 1
  49       21       45 1
  50       24       46 1
  51       26       47 1
  52       27       48 1
  53       28       49 1
  54       29       50 1
  55       32       51 1

@<TRIPOS>MOLECULE

  51   55
SMALL
USER_CHARGES
@<TRIPOS>ATOM
   1 C1          -1.9305     5.9275     1.0025 C.3          1    LIG   0.0000
   2 C2          -1.1442     4.6246     1.0011 C.ar         1    LIG   0.0000
   3 C3          -1.8254     3.4126     1.0010 C.ar         1    LIG   0.0000
   4 C4          -1.1161     2.2161     1.0000 C.ar         1    LIG   0.0000
   5 C5           0.2751     2.2555     1.0000 C.ar         1    LIG   0.0000
   6 C6           1.0000     1.0000     1.0000 C.2          1    LIG   0.0000
   7 N7           2.2500     1.0000     1.0000 N.2          1    LIG   0.0000
   8 N8           2.7985     2.2318     1.0000 N.2          1    LIG   1.0000
   9 C9           3.1097     2.9261     2.1391 C.2          1    LIG   0.0000
  10 C10          2.9031     2.4581     3.4960 C.ar         1    LIG   0.0000
  11 C11          3.8572     2.7000     4.4785 C.ar         1    LIG   0.0000
  12 C12          3.6346     2.2481     5.7743 C.ar         1    LIG   0.0000
  13 C13          2.4758     1.5628     6.1283 C.ar         1    LIG   0.0000
  14 C14          1.5369     1.3140     5.1337 C.ar         1    LIG   0.0000
  15 C15          1.7472     1.7607     3.8325 C.ar         1    LIG   0.0000
  16 N16          0.3862     0.6015     5.4851 N.am         1    LIG   0.0000
  17 C17          0.0003     0.4624     6.8236 C.2          1    LIG   0.0000
  18 O18         -1.0191    -0.1297     7.1520 O.2          1    LIG   0.0000
  19 C19          0.9166     1.0830     7.8657 C.3          1    LIG   0.0000
  20 O20          2.2567     1.1444     7.3961 O.3          1    LIG   0.0000
  21 C21          3.6609     4.1596     1.9682 C.2          1    LIG   0.0000
  22 S22          3.7379     4.3415     0.2750 S.3          1    LIG   0.0000
  23 C23          3.0669     2.8348    -0.1350 C.2          1    LIG   0.0000
  24 N24          2.8460     2.3404    -1.4230 N.pl3        1    LIG   0.0000
  25 C25          2.2811     1.0716    -1.5984 C.ar         1    LIG   0.0000
  26 C26          3.1336    -0.0246    -1.6791 C.ar         1    LIG   0.0000
  27 C27          2.5824    -1.2900    -1.8511 C.ar         1    LIG   0.0000
  28 C28          1.2036    -1.4412    -1.9383 C.ar         1    LIG   0.0000
  29 C29          0.4035    -0.3074    -1.8503 C.ar         1    LIG   0.0000
  30 N30          0.9525     0.9050    -1.6851 N.ar         1    LIG   0.0000
  31 N31          0.9144     3.4360     1.0000 N.ar         1    LIG   0.0000
  32 C32          0.2474     4.5992     1.0010 C.ar         1    LIG   0.0000
  33 H           -2.9099     5.7258     1.0023 H            1    LIG   0.0000
  34 H           -1.6991     6.4556     1.8196 H            1    LIG   0.0000
  35 H           -1.6992     6.4574     0.1866 H            1    LIG   0.0000
  36 H           -2.8253     3.4011     1.0018 H            1    LIG   0.0000
  37 H           -1.5988     1.3403     0.9992 H            1    LIG   0.0000
  38 H            0.5000     0.1340     1.0000 H            1    LIG   0.0000
  39 H            4.6967     3.1951     4.2547 H            1    LIG   0.0000
  40 H            4.3283     2.4206     6.4736 H            1    LIG   0.0000
  41 H            1.0588     1.5780     3.1306 H            1    LIG   0.0000
  42 H           -0.1710     0.1837     4.7674 H            1    LIG   0.0000
  43 H            0.5992     2.0091     8.0699 H            1    LIG   0.0000
  44 H            0.8871     0.5295     8.6980 H            1    LIG   0.0000
  45 H            3.9524     4.8075     2.6718 H            1    LIG   0.0000
  46 H            3.0913     2.8929    -2.2196 H            1    LIG   0.0000
  47 H            4.1243     0.0949    -1.6147 H            1    LIG   0.0000
  48 H            3.1782    -2.0909    -1.9120 H            1    LIG   0.0000
  49 H            0.7958    -2.3459    -2.0618 H            1    LIG   0.0000
  50 H           -0.5907    -0.3969    -1.9108 H            1    LIG   0.0000
  51 H            0.7565     5.4599     1.0017 H            1    LIG   0.0000
@<TRIPOS>BOND
   1        1        2 1
   2        2        3 ar
   3        3        4 ar
   4        4        5 ar
   5        5        6 1
   6        6        7 2
   7        7        8 1
   8        8        9 1
   9        9       10 1
  10       10       11 ar
  11       11       12 ar
  12       12       13 ar
  13       13       14 ar
  14       14       15 ar
  15       15       10 ar
  16       14       16 1
  17       16       17 am
  18       17       18 2
  19       17       19 1
  20       19       20 1
  21       20       13 1
  22        9       21 2
  23       21       22 1
  24       22       23 1
  25       23        8 2
  26       23       24 1
  27       24       25 1
  28       25       26 ar
  29       26       27 ar
  30       27       28 ar
  31       28       29 ar
  32       29       30 ar
  33       30       25 ar
  34        5       31 ar
  35       31       32 ar
  36       32        2 ar
  37        1       33 1
  38        1       34 1
  39        1       35 1
  40        3       36 1
  41        4       37 1
  42        6       38 1
  43       11       39 1
  44       12       40 1
  45       15       41 1
  46       16       42 1
  47       19       43 1
  48       19       44 1
  49       21       45 1
  50       24       46 1
  51       26       47 1
  52       27       48 1
  53       28       49 1
  54       29       50 1
  55       32       51 1

@<TRIPOS>MOLECULE

  51   55
SMALL
USER_CHARGES
@<TRIPOS>ATOM
   1 C1          -1.8965     5.9471     1.0655 C.3          1    LIG   0.0000
   2 C2          -1.1241     4.6362     1.0392 C.ar         1    LIG   0.0000
   3 C3          -1.2874     3.7232     2.0749 C.ar         1    LIG   0.0000
   4 C4          -0.5859     2.5223     2.0605 C.ar         1    LIG   0.0000
   5 C5           0.2751     2.2555     1.0000 C.ar         1    LIG   0.0000
   6 C6           1.0000     1.0000     1.0000 C.2          1    LIG   0.0000
   7 N7           2.2500     1.0000     1.0000 N.2          1    LIG   0.0000
   8 N8           2.7985     2.2318     1.0000 N.2          1    LIG   1.0000
   9 C9           3.1097     2.9261     2.1391 C.2          1    LIG   0.0000
  10 C10          2.9030     2.4579     3.4967 C.ar         1    LIG   0.0000
  11 C11          3.3506     1.1960     3.8788 C.ar         1    LIG   0.0000
  12 C12          3.1454     0.7637     5.1853 C.ar         1    LIG   0.0000
  13 C13          2.4976     1.5528     6.1331 C.ar         1    LIG   0.0000
  14 C14          2.0667     2.8051     5.7221 C.ar         1    LIG   0.0000
  15 C15          2.2579     3.2700     4.4236 C.ar         1    LIG   0.0000
  16 N16          1.4336     3.6586     6.6292 N.am         1    LIG   0.0000
  17 C17          0.9569     3.1512     7.8403 C.2          1    LIG   0.0000
  18 O18          0.3735     3.9010     8.6065 O.2          1    LIG   0.0000
  19 C19          1.1831     1.6742     8.1305 C.3          1    LIG   0.0000
  20 O20          2.2887     1.1454     7.4082 O.3          1    LIG   0.0000
  21 C21          3.6609     4.1596     1.9682 C.2          1    LIG   0.0000
  22 S22          3.7379     4.3415     0.2750 S.3          1    LIG   0.0000
  23 C23          3.0669     2.8348    -0.1350 C.2          1    LIG   0.0000
  24 N24          2.8460     2.3404    -1.4230 N.pl3        1    LIG   0.0000
  25 C25          1.6277     2.5858    -2.0675 C.ar         1    LIG   0.0000
  26 C26          1.5133     3.7316    -2.8480 C.ar         1    LIG   0.0000
  27 C27          0.3078     3.9836    -3.4945 C.ar         1    LIG   0.0000
  28 C28         -0.7540     3.0978    -3.3546 C.ar         1    LIG   0.0000
  29 C29         -0.5785     1.9695    -2.5611 C.ar         1    LIG   0.0000
  30 N30          0.5909     1.7429    -1.9447 N.ar         1    LIG   0.0000
  31 N31          0.4191     3.1500     0.0094 N.ar         1    LIG   0.0000
  32 C32         -0.2489     4.3127     0.0065 C.ar         1    LIG   0.0000
  33 H           -2.4651     5.9826     1.8873 H            1    LIG   0.0000
  34 H           -1.2534     6.7129     1.0718 H            1    LIG   0.0000
  35 H           -2.4786     6.0074     0.2546 H            1    LIG   0.0000
  36 H           -1.9094     3.9299     2.8302 H            1    LIG   0.0000
  37 H           -0.6985     1.8601     2.8013 H            1    LIG   0.0000
  38 H            0.5000     0.1340     1.0000 H            1    LIG   0.0000
  39 H            3.8159     0.6052     3.2196 H            1    LIG   0.0000
  40 H            3.4733    -0.1425     5.4524 H            1    LIG   0.0000
  41 H            1.9346     4.1788     4.1600 H            1    LIG   0.0000
  42 H            1.3222     4.6284     6.4124 H            1    LIG   0.0000
  43 H            1.3547     1.5613     9.1091 H            1    LIG   0.0000
  44 H            0.3601     1.1666     7.8756 H            1    LIG   0.0000
  45 H            3.9524     4.8075     2.6718 H            1    LIG   0.0000
  46 H            3.5581     1.8113    -1.8845 H            1    LIG   0.0000
  47 H            2.2835     4.3623    -2.9426 H            1    LIG   0.0000
  48 H            0.2051     4.8020    -4.0598 H            1    LIG   0.0000
  49 H           -1.6253     3.2682    -3.8146 H            1    LIG   0.0000
  50 H           -1.3313     1.3208    -2.4490 H            1    LIG   0.0000
  51 H           -0.1165     4.9558    -0.7477 H            1    LIG   0.0000
@<TRIPOS>BOND
   1        1        2 1
   2        2        3 ar
   3        3        4 ar
   4        4        5 ar
   5        5        6 1
   6        6        7 2
   7        7        8 1
   8        8        9 1
   9        9       10 1
  10       10       11 ar
  11       11       12 ar
  12       12       13 ar
  13       13       14 ar
  14       14       15 ar
  15       15       10 ar
  16       14       16 1
  17       16       17 am
  18       17       18 2
  19       17       19 1
  20       19       20 1
  21       20       13 1
  22        9       21 2
  23       21       22 1
  24       22       23 1
  25       23        8 2
  26       23       24 1
  27       24       25 1
  28       25       26 ar
  29       26       27 ar
  30       27       28 ar
  31       28       29 ar
  32       29       30 ar
  33       30       25 ar
  34        5       31 ar
  35       31       32 ar
  36       32        2 ar
  37        1       33 1
  38        1       34 1
  39        1       35 1
  40        3       36 1
  41        4       37 1
  42        6       38 1
  43       11       39 1
  44       12       40 1
  45       15       41 1
  46       16       42 1
  47       19       43 1
  48       19       44 1
  49       21       45 1
  50       24       46 1
  51       26       47 1
  52       27       48 1
  53       28       49 1
  54       29       50 1
  55       32       51 1

@<TRIPOS>MOLECULE

  51   55
SMALL
USER_CHARGES
@<TRIPOS>ATOM
   1 C1          -1.8965     5.9471     1.0655 C.3          1    LIG   0.0000
   2 C2          -1.1241     4.6362     1.0392 C.ar         1    LIG   0.0000
   3 C3          -1.2874     3.7232     2.0749 C.ar         1    LIG   0.0000
   4 C4          -0.5859     2.5223     2.0605 C.ar         1    LIG   0.0000
   5 C5           0.2751     2.2555     1.0000 C.ar         1    LIG   0.0000
   6 C6           1.0000     1.0000     1.0000 C.2          1    LIG   0.0000
   7 N7           2.2500     1.0000     1.0000 N.2          1    LIG   0.0000
   8 N8           2.7985     2.2318     1.0000 N.2          1    LIG   1.0000
   9 C9           3.1097     2.9261     2.1391 C.2          1    LIG   0.0000
  10 C10          2.9030     2.4579     3.4967 C.ar         1    LIG   0.0000
  11 C11          3.0634     3.3292     4.5709 C.ar         1    LIG   0.0000
  12 C12          2.8596     2.8636     5.8661 C.ar         1    LIG   0.0000
  13 C13          2.5023     1.5433     6.1306 C.ar         1    LIG   0.0000
  14 C14          2.3474     0.7017     5.0394 C.ar         1    LIG   0.0000
  15 C15          2.5410     1.1353     3.7305 C.ar         1    LIG   0.0000
  16 N16          1.9640    -0.6280     5.2314 N.am         1    LIG   0.0000
  17 C17          2.0397    -1.1931     6.5068 C.2          1    LIG   0.0000
  18 O18          1.7363    -2.3662     6.6523 O.2          1    LIG   0.0000
  19 C19          2.5144    -0.3070     7.6498 C.3          1    LIG   0.0000
  20 O20          2.3021     1.0746     7.3858 O.3          1    LIG   0.0000
  21 C21          3.6609     4.1596     1.9682 C.2          1    LIG   0.0000
  22 S22          3.7379     4.3415     0.2750 S.3          1    LIG   0.0000
  23 C23          3.0669     2.8348    -0.1350 C.2          1    LIG   0.0000
  24 N24          2.8460     2.3404    -1.4230 N.pl3        1    LIG   0.0000
  25 C25          1.6277     2.5858    -2.0675 C.ar         1    LIG   0.0000
  26 C26          0.5939     1.6712    -1.8944 C.ar         1    LIG   0.0000
  27 C27         -0.6214     1.9067    -2.5285 C.ar         1    LIG   0.0000
  28 C28         -0.7856     3.0394    -3.3170 C.ar         1    LIG   0.0000
  29 C29          0.2847     3.9168    -3.4514 C.ar         1    LIG   0.0000
  30 N30          1.4495     3.6733    -2.8330 N.ar         1    LIG   0.0000
  31 N31          0.4191     3.1500     0.0094 N.ar         1    LIG   0.0000
  32 C32         -0.2489     4.3127     0.0065 C.ar         1    LIG   0.0000
  33 H           -2.4651     5.9826     1.8873 H            1    LIG   0.0000
  34 H           -1.2534     6.7129     1.0718 H            1    LIG   0.0000
  35 H           -2.4786     6.0074     0.2546 H            1    LIG   0.0000
  36 H           -1.9094     3.9299     2.8302 H            1    LIG   0.0000
  37 H           -0.6985     1.8601     2.8013 H            1    LIG   0.0000
  38 H            0.5000     0.1340     1.0000 H            1    LIG   0.0000
  39 H            3.3230     4.2819     4.4127 H            1    LIG   0.0000
  40 H            2.9733     3.4969     6.6316 H            1    LIG   0.0000
  41 H            2.4210     0.5020     2.9659 H            1    LIG   0.0000
  42 H            1.6367    -1.1728     4.4594 H            1    LIG   0.0000
  43 H            2.0144    -0.5565     8.4791 H            1    LIG   0.0000
  44 H            3.4923    -0.4609     7.7911 H            1    LIG   0.0000
  45 H            3.9524     4.8075     2.6718 H            1    LIG   0.0000
  46 H            3.5581     1.8113    -1.8845 H            1    LIG   0.0000
  47 H            0.7221     0.8595    -1.3245 H            1    LIG   0.0000
  48 H           -1.3769     1.2611    -2.4172 H            1    LIG   0.0000
  49 H           -1.6547     3.2195    -3.7776 H            1    LIG   0.0000
  50 H            0.1849     4.7372    -4.0145 H            1    LIG   0.0000
  51 H           -0.1165     4.9558    -0.7477 H            1    LIG   0.0000
@<TRIPOS>BOND
   1        1        2 1
   2        2        3 ar
   3        3        4 ar
   4        4        5 ar
   5        5        6 1
   6        6        7 2
   7        7        8 1
   8        8        9 1
   9        9       10 1
  10       10       11 ar
  11       11       12 ar
  12       12       13 ar
  13       13       14 ar
  14       14       15 ar
  15       15       10 ar
  16       14       16 1
  17       16       17 am
  18       17       18 2
  19       17       19 1
  20       19       20 1
  21       20       13 1
  22        9       21 2
  23       21       22 1
  24       22       23 1
  25       23        8 2
  26       23       24 1
  27       24       25 1
  28       25       26 ar
  29       26       27 ar
  30       27       28 ar
  31       28       29 ar
  32       29       30 ar
  33       30       25 ar
  34        5       31 ar
  35       31       32 ar
  36       32        2 ar
  37        1       33 1
  38        1       34 1
  39        1       35 1
  40        3       36 1
  41        4       37 1
  42        6       38 1
  43       11       39 1
  44       12       40 1
  45       15       41 1
  46       16       42 1
  47       19       43 1
  48       19       44 1
  49       21       45 1
  50       24       46 1
  51       26       47 1
  52       27       48 1
  53       28       49 1
  54       29       50 1
  55       32       51 1

