@<TRIPOS>MOLECULE
*****
 51 55 0 0 0
SMALL
USER_CHARGES

@<TRIPOS>ATOM
      1 C1         -1.9305    5.9275    1.0025 C.3     1  LIG1        0.0000
      2 C2         -1.1442    4.6246    1.0011 C.3     1  LIG1        0.0000
      3 C3         -1.8254    3.4126    1.0010 C.3     1  LIG1        0.0000
      4 C4         -1.1161    2.2161    1.0000 C.3     1  LIG1        0.0000
      5 C5          0.2751    2.2555    1.0000 C.3     1  LIG1        0.0000
      6 C6          1.0000    1.0000    1.0000 C.2     1  LIG1        0.0000
      7 N7          2.2500    1.0000    1.0000 N.2     1  LIG1        0.0000
      8 N8          2.7985    2.2318    1.0000 N.2     1  LIG1        1.0000
      9 C9          3.6267    2.6959    0.0125 C.2     1  LIG1        0.0000
     10 C10         4.0371    1.9532   -1.1634 C.3     1  LIG1        0.0000
     11 C11         4.5485    0.6657   -1.0415 C.3     1  LIG1        0.0000
     12 C12         4.9290   -0.0303   -2.1834 C.3     1  LIG1        0.0000
     13 C13         4.8073    0.5181   -3.4570 C.3     1  LIG1        0.0000
     14 C14         4.3091    1.8116   -3.5641 C.3     1  LIG1        0.0000
     15 C15         3.9246    2.5195   -2.4293 C.3     1  LIG1        0.0000
     16 N16         4.2134    2.3710   -4.8420 N.am    1  LIG1        0.0000
     17 C17         4.2545    1.5695   -5.9891 C.2     1  LIG1        0.0000
     18 O18         4.1411    2.0338   -7.1156 O.2     1  LIG1        0.0000
     19 C19         4.4530    0.0780   -5.7723 C.3     1  LIG1        0.0000
     20 O20         5.1601   -0.1731   -4.5652 O.2     1  LIG1        0.0000
     21 C21         4.0967    3.9655    0.1597 C.2     1  LIG1        0.0000
     22 S22         3.4065    4.4890    1.6278 S.3     1  LIG1        0.0000
     23 C23         2.5485    3.0657    1.9829 C.2     1  LIG1        0.0000
     24 N24         1.7405    2.8326    3.0988 N.pl3   1  LIG1        0.0000
     25 C25         1.0955    1.5995    3.2506 C.3     1  LIG1        0.0000
     26 C26        -0.2093    1.5925    3.7329 C.3     1  LIG1        0.0000
     27 C27        -0.8601    0.3727    3.8854 C.3     1  LIG1        0.0000
     28 C28        -0.2065   -0.8092    3.5574 C.3     1  LIG1        0.0000
     29 C29         1.0974   -0.7375    3.0798 C.3     1  LIG1        0.0000
     30 N30         1.7095    0.4476    2.9397 N.pl3   1  LIG1        0.0000
     31 N31         0.9144    3.4360    1.0000 N.pl3   1  LIG1        0.0000
     32 C32         0.2474    4.5992    1.0010 C.3     1  LIG1        0.0000
     33 H          -2.9099    5.7258    1.0023 H       1  LIG1        0.0000
     34 H          -1.6991    6.4556    1.8196 H       1  LIG1        0.0000
     35 H          -1.6992    6.4574    0.1866 H       1  LIG1        0.0000
     36 H          -2.8253    3.4011    1.0018 H       1  LIG1        0.0000
     37 H          -1.5988    1.3403    0.9992 H       1  LIG1        0.0000
     38 H           0.5000    0.1340    1.0000 H       1  LIG1        0.0000
     39 H           4.6417    0.2437   -0.1396 H       1  LIG1        0.0000
     40 H           5.3015   -0.9532   -2.0868 H       1  LIG1        0.0000
     41 H           3.5628    3.4468   -2.5249 H       1  LIG1        0.0000
     42 H           4.1139    3.3614   -4.9383 H       1  LIG1        0.0000
     43 H           3.5589   -0.3673   -5.7259 H       1  LIG1        0.0000
     44 H           4.9729   -0.2973   -6.5396 H       1  LIG1        0.0000
     45 H           4.7048    4.4725   -0.4511 H       1  LIG1        0.0000
     46 H           1.6230    3.5467    3.7889 H       1  LIG1        0.0000
     47 H          -0.6709    2.4485    3.9656 H       1  LIG1        0.0000
     48 H          -1.7980    0.3461    4.2311 H       1  LIG1        0.0000
     49 H          -0.6641   -1.6921    3.6626 H       1  LIG1        0.0000
     50 H           1.5834   -1.5775    2.8384 H       1  LIG1        0.0000
     51 H           0.7565    5.4599    1.0017 H       1  LIG1        0.0000
@<TRIPOS>BOND
     1     1     2    1
     2     2     3   ar
     3     3     4   ar
     4     4     5   ar
     5     5     6    1
     6     6     7    2
     7     7     8    1
     8     8     9    1
     9     9    10    1
    10    10    11   ar
    11    11    12   ar
    12    12    13   ar
    13    13    14   ar
    14    14    15   ar
    15    15    10   ar
    16    14    16    1
    17    16    17   am
    18    17    18    2
    19    17    19    1
    20    19    20    1
    21    20    13    1
    22     9    21    2
    23    21    22    1
    24    22    23    1
    25    23     8    2
    26    23    24    1
    27    24    25    1
    28    25    26   ar
    29    26    27   ar
    30    27    28   ar
    31    28    29   ar
    32    29    30   ar
    33    30    25   ar
    34     5    31   ar
    35    31    32   ar
    36    32     2   ar
    37     1    33    1
    38     1    34    1
    39     1    35    1
    40     3    36    1
    41     4    37    1
    42     6    38    1
    43    11    39    1
    44    12    40    1
    45    15    41    1
    46    16    42    1
    47    19    43    1
    48    19    44    1
    49    21    45    1
    50    24    46    1
    51    26    47    1
    52    27    48    1
    53    28    49    1
    54    29    50    1
    55    32    51    1
