@<TRIPOS>MOLECULE
*****
 51 55 0 0 0
SMALL
USER_CHARGES

@<TRIPOS>ATOM
      1 C1         -1.9230    5.9318    0.9651 C.3     1  LIG1        0.0000
      2 C2         -1.1395    4.6273    0.9786 C.3     1  LIG1        0.0000
      3 C3         -1.6819    3.4954    0.3806 C.3     1  LIG1        0.0000
      4 C4         -0.9740    2.2982    0.3877 C.3     1  LIG1        0.0000
      5 C5          0.2751    2.2555    1.0000 C.3     1  LIG1        0.0000
      6 C6          1.0000    1.0000    1.0000 C.2     1  LIG1        0.0000
      7 N7          2.2500    1.0000    1.0000 N.2     1  LIG1        0.0000
      8 N8          2.7985    2.2318    1.0000 N.2     1  LIG1        1.0000
      9 C9          2.5861    3.1593    0.0145 C.2     1  LIG1        0.0000
     10 C10         1.7569    2.9684   -1.1598 C.3     1  LIG1        0.0000
     11 C11         0.4653    3.4822   -1.2023 C.3     1  LIG1        0.0000
     12 C12        -0.3091    3.2931   -2.3414 C.3     1  LIG1        0.0000
     13 C13         0.1702    2.6085   -3.4546 C.3     1  LIG1        0.0000
     14 C14         1.4574    2.0867   -3.3937 C.3     1  LIG1        0.0000
     15 C15         2.2431    2.2685   -2.2596 C.3     1  LIG1        0.0000
     16 N16         1.9271    1.3755   -4.5022 N.am    1  LIG1        0.0000
     17 C17         1.3058    1.4877   -5.7517 C.2     1  LIG1        0.0000
     18 O18         1.7184    0.8994   -6.7423 O.2     1  LIG1        0.0000
     19 C19         0.0774    2.3803   -5.8251 C.3     1  LIG1        0.0000
     20 O20        -0.5817    2.4466   -4.5676 O.2     1  LIG1        0.0000
     21 C21         3.2122    4.3593    0.1634 C.2     1  LIG1        0.0000
     22 S22         4.0688    4.1942    1.6279 S.3     1  LIG1        0.0000
     23 C23         3.5854    2.6040    1.9829 C.2     1  LIG1        0.0000
     24 N24         3.9540    1.8471    3.0980 N.pl3   1  LIG1        0.0000
     25 C25         3.4692    0.5426    3.2499 C.3     1  LIG1        0.0000
     26 C26         4.2107   -0.5037    2.7107 C.3     1  LIG1        0.0000
     27 C27         3.7390   -1.8038    2.8580 C.3     1  LIG1        0.0000
     28 C28         2.5477   -2.0382    3.5343 C.3     1  LIG1        0.0000
     29 C29         1.8516   -0.9512    4.0513 C.3     1  LIG1        0.0000
     30 N30         2.3213    0.2958    3.8992 N.pl3   1  LIG1        0.0000
     31 N31         0.7817    3.3593    1.5719 N.pl3   1  LIG1        0.0000
     32 C32         0.1137    4.5220    1.5748 C.3     1  LIG1        0.0000
     33 H          -2.7922    5.7937    0.4904 H       1  LIG1        0.0000
     34 H          -2.0993    6.2245    1.9049 H       1  LIG1        0.0000
     35 H          -1.3923    6.6345    0.4912 H       1  LIG1        0.0000
     36 H          -2.5810    3.5421   -0.0546 H       1  LIG1        0.0000
     37 H          -1.3571    1.4799   -0.0409 H       1  LIG1        0.0000
     38 H           0.5000    0.1340    1.0000 H       1  LIG1        0.0000
     39 H           0.0964    3.9837   -0.4197 H       1  LIG1        0.0000
     40 H          -1.2390    3.6603   -2.3617 H       1  LIG1        0.0000
     41 H           3.1690    1.8914   -2.2348 H       1  LIG1        0.0000
     42 H           2.7210    0.7760   -4.4007 H       1  LIG1        0.0000
     43 H           0.3583    3.3011   -6.0957 H       1  LIG1        0.0000
     44 H          -0.5547    2.0109   -6.5062 H       1  LIG1        0.0000
     45 H           3.1775    5.1525   -0.4445 H       1  LIG1        0.0000
     46 H           4.5642    2.2372    3.7876 H       1  LIG1        0.0000
     47 H           5.0669   -0.3244    2.2263 H       1  LIG1        0.0000
     48 H           4.2570   -2.5698    2.4772 H       1  LIG1        0.0000
     49 H           2.1986   -2.9685    3.6467 H       1  LIG1        0.0000
     50 H           0.9927   -1.1006    4.5411 H       1  LIG1        0.0000
     51 H           0.5215    5.3242    2.0110 H       1  LIG1        0.0000
@<TRIPOS>BOND
     1     1     2    1
     2     2     3   ar
     3     3     4   ar
     4     4     5   ar
     5     5     6    1
     6     6     7    2
     7     7     8    1
     8     8     9    1
     9     9    10    1
    10    10    11   ar
    11    11    12   ar
    12    12    13   ar
    13    13    14   ar
    14    14    15   ar
    15    15    10   ar
    16    14    16    1
    17    16    17   am
    18    17    18    2
    19    17    19    1
    20    19    20    1
    21    20    13    1
    22     9    21    2
    23    21    22    1
    24    22    23    1
    25    23     8    2
    26    23    24    1
    27    24    25    1
    28    25    26   ar
    29    26    27   ar
    30    27    28   ar
    31    28    29   ar
    32    29    30   ar
    33    30    25   ar
    34     5    31   ar
    35    31    32   ar
    36    32     2   ar
    37     1    33    1
    38     1    34    1
    39     1    35    1
    40     3    36    1
    41     4    37    1
    42     6    38    1
    43    11    39    1
    44    12    40    1
    45    15    41    1
    46    16    42    1
    47    19    43    1
    48    19    44    1
    49    21    45    1
    50    24    46    1
    51    26    47    1
    52    27    48    1
    53    28    49    1
    54    29    50    1
    55    32    51    1
