@<TRIPOS>MOLECULE
*****
 51 55 0 0 0
SMALL
USER_CHARGES

@<TRIPOS>ATOM
      1 C1         -1.9305    5.9275    1.0025 C.3     1  LIG1        0.0000
      2 C2         -1.1442    4.6246    1.0011 C.3     1  LIG1        0.0000
      3 C3         -1.8254    3.4126    1.0010 C.3     1  LIG1        0.0000
      4 C4         -1.1161    2.2161    1.0000 C.3     1  LIG1        0.0000
      5 C5          0.2751    2.2555    1.0000 C.3     1  LIG1        0.0000
      6 C6          1.0000    1.0000    1.0000 C.2     1  LIG1        0.0000
      7 N7          2.2500    1.0000    1.0000 N.2     1  LIG1        0.0000
      8 N8          2.7985    2.2318    1.0000 N.2     1  LIG1        1.0000
      9 C9          3.6267    2.6959    0.0125 C.2     1  LIG1        0.0000
     10 C10         4.0371    1.9532   -1.1634 C.3     1  LIG1        0.0000
     11 C11         4.7092    2.5903   -2.2010 C.3     1  LIG1        0.0000
     12 C12         5.0994    1.8566   -3.3157 C.3     1  LIG1        0.0000
     13 C13         4.8460    0.4924   -3.4272 C.3     1  LIG1        0.0000
     14 C14         4.1600   -0.1294   -2.3901 C.3     1  LIG1        0.0000
     15 C15         3.7636    0.5931   -1.2687 C.3     1  LIG1        0.0000
     16 N16         3.8822   -1.4940   -2.5164 N.am    1  LIG1        0.0000
     17 C17         4.5668   -2.2905   -3.4421 C.2     1  LIG1        0.0000
     18 O18         4.3624   -3.4924   -3.5479 O.2     1  LIG1        0.0000
     19 C19         5.5856   -1.5878   -4.3249 C.3     1  LIG1        0.0000
     20 O20         5.2473   -0.2192   -4.5057 O.2     1  LIG1        0.0000
     21 C21         4.0967    3.9655    0.1597 C.2     1  LIG1        0.0000
     22 S22         3.4065    4.4890    1.6278 S.3     1  LIG1        0.0000
     23 C23         2.5485    3.0657    1.9829 C.2     1  LIG1        0.0000
     24 N24         1.7405    2.8326    3.0988 N.pl3   1  LIG1        0.0000
     25 C25         2.2952    2.2886    4.2633 C.3     1  LIG1        0.0000
     26 C26         3.6551    1.9958    4.2718 C.3     1  LIG1        0.0000
     27 C27         4.2167    1.4570    5.4245 C.3     1  LIG1        0.0000
     28 C28         3.4217    1.2216    6.5400 C.3     1  LIG1        0.0000
     29 C29         2.0689    1.5354    6.4705 C.3     1  LIG1        0.0000
     30 N30         1.5445    2.0537    5.3503 N.pl3   1  LIG1        0.0000
     31 N31         0.9144    3.4360    1.0000 N.pl3   1  LIG1        0.0000
     32 C32         0.2474    4.5992    1.0010 C.3     1  LIG1        0.0000
     33 H          -2.9099    5.7258    1.0023 H       1  LIG1        0.0000
     34 H          -1.6991    6.4556    1.8196 H       1  LIG1        0.0000
     35 H          -1.6992    6.4574    0.1866 H       1  LIG1        0.0000
     36 H          -2.8253    3.4011    1.0018 H       1  LIG1        0.0000
     37 H          -1.5988    1.3403    0.9992 H       1  LIG1        0.0000
     38 H           0.5000    0.1340    1.0000 H       1  LIG1        0.0000
     39 H           4.9103    3.5683   -2.1457 H       1  LIG1        0.0000
     40 H           5.5767    2.3233   -4.0602 H       1  LIG1        0.0000
     41 H           3.2761    0.1288   -0.5293 H       1  LIG1        0.0000
     42 H           3.1819   -1.9084   -1.9351 H       1  LIG1        0.0000
     43 H           6.4866   -1.6476   -3.8954 H       1  LIG1        0.0000
     44 H           5.6109   -2.0387   -5.2171 H       1  LIG1        0.0000
     45 H           4.7048    4.4725   -0.4511 H       1  LIG1        0.0000
     46 H           0.7660    3.0545    3.0656 H       1  LIG1        0.0000
     47 H           4.2185    2.1695    3.4640 H       1  LIG1        0.0000
     48 H           5.1923    1.2391    5.4508 H       1  LIG1        0.0000
     49 H           3.8142    0.8348    7.3745 H       1  LIG1        0.0000
     50 H           1.4815    1.3730    7.2634 H       1  LIG1        0.0000
     51 H           0.7565    5.4599    1.0017 H       1  LIG1        0.0000
@<TRIPOS>BOND
     1     1     2    1
     2     2     3   ar
     3     3     4   ar
     4     4     5   ar
     5     5     6    1
     6     6     7    2
     7     7     8    1
     8     8     9    1
     9     9    10    1
    10    10    11   ar
    11    11    12   ar
    12    12    13   ar
    13    13    14   ar
    14    14    15   ar
    15    15    10   ar
    16    14    16    1
    17    16    17   am
    18    17    18    2
    19    17    19    1
    20    19    20    1
    21    20    13    1
    22     9    21    2
    23    21    22    1
    24    22    23    1
    25    23     8    2
    26    23    24    1
    27    24    25    1
    28    25    26   ar
    29    26    27   ar
    30    27    28   ar
    31    28    29   ar
    32    29    30   ar
    33    30    25   ar
    34     5    31   ar
    35    31    32   ar
    36    32     2   ar
    37     1    33    1
    38     1    34    1
    39     1    35    1
    40     3    36    1
    41     4    37    1
    42     6    38    1
    43    11    39    1
    44    12    40    1
    45    15    41    1
    46    16    42    1
    47    19    43    1
    48    19    44    1
    49    21    45    1
    50    24    46    1
    51    26    47    1
    52    27    48    1
    53    28    49    1
    54    29    50    1
    55    32    51    1
