@<TRIPOS>MOLECULE
*****
 51 55 0 0 0
SMALL
USER_CHARGES

@<TRIPOS>ATOM
      1 C1         -1.9305    5.9275    1.0025 C.3     1  LIG1        0.0000
      2 C2         -1.1442    4.6246    1.0011 C.3     1  LIG1        0.0000
      3 C3         -1.8254    3.4126    1.0010 C.3     1  LIG1        0.0000
      4 C4         -1.1161    2.2161    1.0000 C.3     1  LIG1        0.0000
      5 C5          0.2751    2.2555    1.0000 C.3     1  LIG1        0.0000
      6 C6          1.0000    1.0000    1.0000 C.2     1  LIG1        0.0000
      7 N7          2.2500    1.0000    1.0000 N.2     1  LIG1        0.0000
      8 N8          2.7985    2.2318    1.0000 N.2     1  LIG1        1.0000
      9 C9          2.5861    3.1593    0.0145 C.2     1  LIG1        0.0000
     10 C10         1.7569    2.9684   -1.1598 C.3     1  LIG1        0.0000
     11 C11         1.9121    1.8394   -1.9569 C.3     1  LIG1        0.0000
     12 C12         1.1011    1.6740   -3.0741 C.3     1  LIG1        0.0000
     13 C13         0.1245    2.6030   -3.4214 C.3     1  LIG1        0.0000
     14 C14        -0.0103    3.7347   -2.6252 C.3     1  LIG1        0.0000
     15 C15         0.7950    3.9128   -1.5043 C.3     1  LIG1        0.0000
     16 N16        -0.9731    4.6802   -2.9914 N.am    1  LIG1        0.0000
     17 C17        -2.0056    4.3566   -3.8798 C.2     1  LIG1        0.0000
     18 O18        -2.8766    5.1583   -4.1898 O.2     1  LIG1        0.0000
     19 C19        -1.9955    2.9490   -4.4538 C.3     1  LIG1        0.0000
     20 O20        -0.6751    2.4249   -4.4982 O.2     1  LIG1        0.0000
     21 C21         3.2122    4.3593    0.1634 C.2     1  LIG1        0.0000
     22 S22         4.0688    4.1942    1.6279 S.3     1  LIG1        0.0000
     23 C23         3.5854    2.6040    1.9829 C.2     1  LIG1        0.0000
     24 N24         3.9540    1.8471    3.0980 N.pl3   1  LIG1        0.0000
     25 C25         3.4692    0.5426    3.2499 C.3     1  LIG1        0.0000
     26 C26         4.2107   -0.5037    2.7107 C.3     1  LIG1        0.0000
     27 C27         3.7390   -1.8038    2.8580 C.3     1  LIG1        0.0000
     28 C28         2.5477   -2.0382    3.5343 C.3     1  LIG1        0.0000
     29 C29         1.8516   -0.9512    4.0513 C.3     1  LIG1        0.0000
     30 N30         2.3213    0.2958    3.8992 N.pl3   1  LIG1        0.0000
     31 N31         0.9144    3.4360    1.0000 N.pl3   1  LIG1        0.0000
     32 C32         0.2474    4.5992    1.0010 C.3     1  LIG1        0.0000
     33 H          -2.9099    5.7258    1.0023 H       1  LIG1        0.0000
     34 H          -1.6991    6.4556    1.8196 H       1  LIG1        0.0000
     35 H          -1.6992    6.4574    0.1866 H       1  LIG1        0.0000
     36 H          -2.8253    3.4011    1.0018 H       1  LIG1        0.0000
     37 H          -1.5988    1.3403    0.9992 H       1  LIG1        0.0000
     38 H           0.5000    0.1340    1.0000 H       1  LIG1        0.0000
     39 H           2.6016    1.1521   -1.7284 H       1  LIG1        0.0000
     40 H           1.2232    0.8626   -3.6456 H       1  LIG1        0.0000
     41 H           0.6808    4.7300   -0.9392 H       1  LIG1        0.0000
     42 H          -0.9233    5.6041   -2.6120 H       1  LIG1        0.0000
     43 H          -2.5625    2.3581   -3.8801 H       1  LIG1        0.0000
     44 H          -2.3693    2.9716   -5.3811 H       1  LIG1        0.0000
     45 H           3.1775    5.1525   -0.4445 H       1  LIG1        0.0000
     46 H           4.5642    2.2372    3.7876 H       1  LIG1        0.0000
     47 H           5.0669   -0.3244    2.2263 H       1  LIG1        0.0000
     48 H           4.2570   -2.5698    2.4772 H       1  LIG1        0.0000
     49 H           2.1986   -2.9685    3.6467 H       1  LIG1        0.0000
     50 H           0.9927   -1.1006    4.5411 H       1  LIG1        0.0000
     51 H           0.7565    5.4599    1.0017 H       1  LIG1        0.0000
@<TRIPOS>BOND
     1     1     2    1
     2     2     3   ar
     3     3     4   ar
     4     4     5   ar
     5     5     6    1
     6     6     7    2
     7     7     8    1
     8     8     9    1
     9     9    10    1
    10    10    11   ar
    11    11    12   ar
    12    12    13   ar
    13    13    14   ar
    14    14    15   ar
    15    15    10   ar
    16    14    16    1
    17    16    17   am
    18    17    18    2
    19    17    19    1
    20    19    20    1
    21    20    13    1
    22     9    21    2
    23    21    22    1
    24    22    23    1
    25    23     8    2
    26    23    24    1
    27    24    25    1
    28    25    26   ar
    29    26    27   ar
    30    27    28   ar
    31    28    29   ar
    32    29    30   ar
    33    30    25   ar
    34     5    31   ar
    35    31    32   ar
    36    32     2   ar
    37     1    33    1
    38     1    34    1
    39     1    35    1
    40     3    36    1
    41     4    37    1
    42     6    38    1
    43    11    39    1
    44    12    40    1
    45    15    41    1
    46    16    42    1
    47    19    43    1
    48    19    44    1
    49    21    45    1
    50    24    46    1
    51    26    47    1
    52    27    48    1
    53    28    49    1
    54    29    50    1
    55    32    51    1
