@<TRIPOS>MOLECULE
*****
 51 55 0 0 0
SMALL
USER_CHARGES

@<TRIPOS>ATOM
      1 C1         -1.9208    5.9331    1.0393 C.3     1  LIG1        0.0000
      2 C2         -1.1386    4.6278    1.0233 C.3     1  LIG1        0.0000
      3 C3         -1.6810    3.4960    1.6212 C.3     1  LIG1        0.0000
      4 C4         -0.9741    2.2982    1.6123 C.3     1  LIG1        0.0000
      5 C5          0.2751    2.2555    1.0000 C.3     1  LIG1        0.0000
      6 C6          1.0000    1.0000    1.0000 C.2     1  LIG1        0.0000
      7 N7          2.2500    1.0000    1.0000 N.2     1  LIG1        0.0000
      8 N8          2.7985    2.2318    1.0000 N.2     1  LIG1        1.0000
      9 C9          2.3733    3.2540    1.8068 C.2     1  LIG1        0.0000
     10 C10         1.2898    3.1764    2.7674 C.3     1  LIG1        0.0000
     11 C11         0.4062    4.2393    2.9213 C.3     1  LIG1        0.0000
     12 C12        -0.6296    4.1398    3.8435 C.3     1  LIG1        0.0000
     13 C13        -0.8202    3.0001    4.6195 C.3     1  LIG1        0.0000
     14 C14         0.0790    1.9507    4.4672 C.3     1  LIG1        0.0000
     15 C15         1.1202    2.0371    3.5479 C.3     1  LIG1        0.0000
     16 N16        -0.0977    0.8177    5.2673 N.am    1  LIG1        0.0000
     17 C17        -1.3124    0.5727    5.9189 C.2     1  LIG1        0.0000
     18 O18        -1.4997   -0.4277    6.5983 O.2     1  LIG1        0.0000
     19 C19        -2.4016    1.6192    5.7474 C.3     1  LIG1        0.0000
     20 O20        -1.8429    2.9024    5.4999 O.2     1  LIG1        0.0000
     21 C21         3.0344    4.4385    1.6873 C.2     1  LIG1        0.0000
     22 S22         4.2062    4.1330    0.4874 S.3     1  LIG1        0.0000
     23 C23         3.8001    2.5084    0.1974 C.2     1  LIG1        0.0000
     24 N24         4.4114    1.6435   -0.7139 N.pl3   1  LIG1        0.0000
     25 C25         3.9597    0.3242   -0.8379 C.3     1  LIG1        0.0000
     26 C26         2.9571    0.0545   -1.7637 C.3     1  LIG1        0.0000
     27 C27         2.5027   -1.2534   -1.8963 C.3     1  LIG1        0.0000
     28 C28         3.0502   -2.2619   -1.1122 C.3     1  LIG1        0.0000
     29 C29         4.0500   -1.9300   -0.2047 C.3     1  LIG1        0.0000
     30 N30         4.4753   -0.6633   -0.0899 N.pl3   1  LIG1        0.0000
     31 N31         0.7817    3.3593    0.4281 N.pl3   1  LIG1        0.0000
     32 C32         0.1146    4.5226    0.4270 C.3     1  LIG1        0.0000
     33 H          -2.7902    5.7949    1.5136 H       1  LIG1        0.0000
     34 H          -1.3895    6.6343    1.5146 H       1  LIG1        0.0000
     35 H          -2.0967    6.2278    0.1000 H       1  LIG1        0.0000
     36 H          -2.5795    3.5430    2.0577 H       1  LIG1        0.0000
     37 H          -1.3578    1.4795    2.0395 H       1  LIG1        0.0000
     38 H           0.5000    0.1340    1.0000 H       1  LIG1        0.0000
     39 H           0.5149    5.0685    2.3731 H       1  LIG1        0.0000
     40 H          -1.2569    4.9108    3.9526 H       1  LIG1        0.0000
     41 H           1.7546    1.2707    3.4470 H       1  LIG1        0.0000
     42 H           0.6570    0.1707    5.3761 H       1  LIG1        0.0000
     43 H          -2.9834    1.3618    4.9759 H       1  LIG1        0.0000
     44 H          -2.9519    1.6578    6.5815 H       1  LIG1        0.0000
     45 H           2.8707    5.2891    2.1868 H       1  LIG1        0.0000
     46 H           5.1715    1.9668   -1.2775 H       1  LIG1        0.0000
     47 H           2.5702    0.7873   -2.3234 H       1  LIG1        0.0000
     48 H           1.7823   -1.4680   -2.5558 H       1  LIG1        0.0000
     49 H           2.7318   -3.2059   -1.1988 H       1  LIG1        0.0000
     50 H           4.4558   -2.6425    0.3677 H       1  LIG1        0.0000
     51 H           0.5230    5.3250   -0.0080 H       1  LIG1        0.0000
@<TRIPOS>BOND
     1     1     2    1
     2     2     3   ar
     3     3     4   ar
     4     4     5   ar
     5     5     6    1
     6     6     7    2
     7     7     8    1
     8     8     9    1
     9     9    10    1
    10    10    11   ar
    11    11    12   ar
    12    12    13   ar
    13    13    14   ar
    14    14    15   ar
    15    15    10   ar
    16    14    16    1
    17    16    17   am
    18    17    18    2
    19    17    19    1
    20    19    20    1
    21    20    13    1
    22     9    21    2
    23    21    22    1
    24    22    23    1
    25    23     8    2
    26    23    24    1
    27    24    25    1
    28    25    26   ar
    29    26    27   ar
    30    27    28   ar
    31    28    29   ar
    32    29    30   ar
    33    30    25   ar
    34     5    31   ar
    35    31    32   ar
    36    32     2   ar
    37     1    33    1
    38     1    34    1
    39     1    35    1
    40     3    36    1
    41     4    37    1
    42     6    38    1
    43    11    39    1
    44    12    40    1
    45    15    41    1
    46    16    42    1
    47    19    43    1
    48    19    44    1
    49    21    45    1
    50    24    46    1
    51    26    47    1
    52    27    48    1
    53    28    49    1
    54    29    50    1
    55    32    51    1
