@<TRIPOS>MOLECULE
*****
 51 55 0 0 0
SMALL
USER_CHARGES

@<TRIPOS>ATOM
      1 C1         -1.9305    5.9275    1.0025 C.3     1  LIG1        0.0000
      2 C2         -1.1442    4.6246    1.0011 C.3     1  LIG1        0.0000
      3 C3         -1.8254    3.4126    1.0010 C.3     1  LIG1        0.0000
      4 C4         -1.1161    2.2161    1.0000 C.3     1  LIG1        0.0000
      5 C5          0.2751    2.2555    1.0000 C.3     1  LIG1        0.0000
      6 C6          1.0000    1.0000    1.0000 C.2     1  LIG1        0.0000
      7 N7          2.2500    1.0000    1.0000 N.2     1  LIG1        0.0000
      8 N8          2.7985    2.2318    1.0000 N.2     1  LIG1        1.0000
      9 C9          3.1097    2.9261    2.1391 C.2     1  LIG1        0.0000
     10 C10         2.9031    2.4581    3.4960 C.3     1  LIG1        0.0000
     11 C11         3.8572    2.7000    4.4785 C.3     1  LIG1        0.0000
     12 C12         3.6346    2.2481    5.7743 C.3     1  LIG1        0.0000
     13 C13         2.4758    1.5628    6.1283 C.3     1  LIG1        0.0000
     14 C14         1.5369    1.3140    5.1337 C.3     1  LIG1        0.0000
     15 C15         1.7472    1.7607    3.8325 C.3     1  LIG1        0.0000
     16 N16         0.3862    0.6015    5.4851 N.am    1  LIG1        0.0000
     17 C17         0.0003    0.4624    6.8236 C.2     1  LIG1        0.0000
     18 O18        -1.0191   -0.1297    7.1520 O.2     1  LIG1        0.0000
     19 C19         0.9166    1.0830    7.8657 C.3     1  LIG1        0.0000
     20 O20         2.2567    1.1444    7.3961 O.2     1  LIG1        0.0000
     21 C21         3.6609    4.1596    1.9682 C.2     1  LIG1        0.0000
     22 S22         3.7379    4.3415    0.2750 S.3     1  LIG1        0.0000
     23 C23         3.0669    2.8348   -0.1350 C.2     1  LIG1        0.0000
     24 N24         2.8460    2.3404   -1.4230 N.pl3   1  LIG1        0.0000
     25 C25         2.2811    1.0716   -1.5984 C.3     1  LIG1        0.0000
     26 C26         3.1336   -0.0246   -1.6791 C.3     1  LIG1        0.0000
     27 C27         2.5824   -1.2900   -1.8511 C.3     1  LIG1        0.0000
     28 C28         1.2036   -1.4412   -1.9383 C.3     1  LIG1        0.0000
     29 C29         0.4035   -0.3074   -1.8503 C.3     1  LIG1        0.0000
     30 N30         0.9525    0.9050   -1.6851 N.pl3   1  LIG1        0.0000
     31 N31         0.9144    3.4360    1.0000 N.pl3   1  LIG1        0.0000
     32 C32         0.2474    4.5992    1.0010 C.3     1  LIG1        0.0000
     33 H          -2.9099    5.7258    1.0023 H       1  LIG1        0.0000
     34 H          -1.6991    6.4556    1.8196 H       1  LIG1        0.0000
     35 H          -1.6992    6.4574    0.1866 H       1  LIG1        0.0000
     36 H          -2.8253    3.4011    1.0018 H       1  LIG1        0.0000
     37 H          -1.5988    1.3403    0.9992 H       1  LIG1        0.0000
     38 H           0.5000    0.1340    1.0000 H       1  LIG1        0.0000
     39 H           4.6967    3.1951    4.2547 H       1  LIG1        0.0000
     40 H           4.3283    2.4206    6.4736 H       1  LIG1        0.0000
     41 H           1.0588    1.5780    3.1306 H       1  LIG1        0.0000
     42 H          -0.1710    0.1837    4.7674 H       1  LIG1        0.0000
     43 H           0.5992    2.0091    8.0699 H       1  LIG1        0.0000
     44 H           0.8871    0.5295    8.6980 H       1  LIG1        0.0000
     45 H           3.9524    4.8075    2.6718 H       1  LIG1        0.0000
     46 H           3.0913    2.8929   -2.2196 H       1  LIG1        0.0000
     47 H           4.1243    0.0949   -1.6147 H       1  LIG1        0.0000
     48 H           3.1782   -2.0909   -1.9120 H       1  LIG1        0.0000
     49 H           0.7958   -2.3459   -2.0618 H       1  LIG1        0.0000
     50 H          -0.5907   -0.3969   -1.9108 H       1  LIG1        0.0000
     51 H           0.7565    5.4599    1.0017 H       1  LIG1        0.0000
@<TRIPOS>BOND
     1     1     2    1
     2     2     3   ar
     3     3     4   ar
     4     4     5   ar
     5     5     6    1
     6     6     7    2
     7     7     8    1
     8     8     9    1
     9     9    10    1
    10    10    11   ar
    11    11    12   ar
    12    12    13   ar
    13    13    14   ar
    14    14    15   ar
    15    15    10   ar
    16    14    16    1
    17    16    17   am
    18    17    18    2
    19    17    19    1
    20    19    20    1
    21    20    13    1
    22     9    21    2
    23    21    22    1
    24    22    23    1
    25    23     8    2
    26    23    24    1
    27    24    25    1
    28    25    26   ar
    29    26    27   ar
    30    27    28   ar
    31    28    29   ar
    32    29    30   ar
    33    30    25   ar
    34     5    31   ar
    35    31    32   ar
    36    32     2   ar
    37     1    33    1
    38     1    34    1
    39     1    35    1
    40     3    36    1
    41     4    37    1
    42     6    38    1
    43    11    39    1
    44    12    40    1
    45    15    41    1
    46    16    42    1
    47    19    43    1
    48    19    44    1
    49    21    45    1
    50    24    46    1
    51    26    47    1
    52    27    48    1
    53    28    49    1
    54    29    50    1
    55    32    51    1
