@<TRIPOS>MOLECULE
*****
 51 55 0 0 0
SMALL
USER_CHARGES

@<TRIPOS>ATOM
      1 C1         -1.9305    5.9275    1.0025 C.3     1  LIG1        0.0000
      2 C2         -1.1442    4.6246    1.0011 C.3     1  LIG1        0.0000
      3 C3         -1.8254    3.4126    1.0010 C.3     1  LIG1        0.0000
      4 C4         -1.1161    2.2161    1.0000 C.3     1  LIG1        0.0000
      5 C5          0.2751    2.2555    1.0000 C.3     1  LIG1        0.0000
      6 C6          1.0000    1.0000    1.0000 C.2     1  LIG1        0.0000
      7 N7          2.2500    1.0000    1.0000 N.2     1  LIG1        0.0000
      8 N8          2.7985    2.2318    1.0000 N.2     1  LIG1        1.0000
      9 C9          2.5891    3.1579    1.9875 C.2     1  LIG1        0.0000
     10 C10         1.7626    2.9659    3.1634 C.3     1  LIG1        0.0000
     11 C11         1.9167    1.8342    3.9567 C.3     1  LIG1        0.0000
     12 C12         1.1180    1.6746    5.0835 C.3     1  LIG1        0.0000
     13 C13         0.1662    2.6205    5.4537 C.3     1  LIG1        0.0000
     14 C14         0.0114    3.7398    4.6439 C.3     1  LIG1        0.0000
     15 C15         0.8042    3.9120    3.5131 C.3     1  LIG1        0.0000
     16 N16        -0.9642    4.6754    5.0021 N.am    1  LIG1        0.0000
     17 C17        -1.5062    4.6993    6.2926 C.2     1  LIG1        0.0000
     18 O18        -2.3376    5.5285    6.6373 O.2     1  LIG1        0.0000
     19 C19        -1.0143    3.6339    7.2590 C.3     1  LIG1        0.0000
     20 O20        -0.5929    2.4684    6.5633 O.2     1  LIG1        0.0000
     21 C21         3.2182    4.3567    1.8403 C.2     1  LIG1        0.0000
     22 S22         4.0690    4.1941    0.3722 S.3     1  LIG1        0.0000
     23 C23         3.5854    2.6040    0.0171 C.2     1  LIG1        0.0000
     24 N24         3.9528    1.8476   -1.0988 N.pl3   1  LIG1        0.0000
     25 C25         3.4680    0.5432   -1.2506 C.3     1  LIG1        0.0000
     26 C26         2.2716    0.3597   -1.9362 C.3     1  LIG1        0.0000
     27 C27         1.7822   -0.9326   -2.0946 C.3     1  LIG1        0.0000
     28 C28         2.4867   -2.0110   -1.5728 C.3     1  LIG1        0.0000
     29 C29         3.6769   -1.7639   -0.8977 C.3     1  LIG1        0.0000
     30 N30         4.1332   -0.5110   -0.7540 N.pl3   1  LIG1        0.0000
     31 N31         0.9144    3.4360    1.0000 N.pl3   1  LIG1        0.0000
     32 C32         0.2474    4.5992    1.0010 C.3     1  LIG1        0.0000
     33 H          -2.9099    5.7258    1.0023 H       1  LIG1        0.0000
     34 H          -1.6991    6.4556    1.8196 H       1  LIG1        0.0000
     35 H          -1.6992    6.4574    0.1866 H       1  LIG1        0.0000
     36 H          -2.8253    3.4011    1.0018 H       1  LIG1        0.0000
     37 H          -1.5988    1.3403    0.9992 H       1  LIG1        0.0000
     38 H           0.5000    0.1340    1.0000 H       1  LIG1        0.0000
     39 H           2.5967    1.1406    3.7187 H       1  LIG1        0.0000
     40 H           1.2307    0.8550    5.6453 H       1  LIG1        0.0000
     41 H           0.6835    4.7259    2.9449 H       1  LIG1        0.0000
     42 H          -1.2803    5.3392    4.3243 H       1  LIG1        0.0000
     43 H          -0.2442    3.9983    7.7826 H       1  LIG1        0.0000
     44 H          -1.7568    3.3912    7.8833 H       1  LIG1        0.0000
     45 H           3.1880    5.1479    2.4511 H       1  LIG1        0.0000
     46 H           4.5621    2.2381   -1.7889 H       1  LIG1        0.0000
     47 H           1.7726    1.1424   -2.3083 H       1  LIG1        0.0000
     48 H           0.9236   -1.0857   -2.5839 H       1  LIG1        0.0000
     49 H           2.1450   -2.9447   -1.6806 H       1  LIG1        0.0000
     50 H           4.1974   -2.5275   -0.5158 H       1  LIG1        0.0000
     51 H           0.7565    5.4599    1.0017 H       1  LIG1        0.0000
@<TRIPOS>BOND
     1     1     2    1
     2     2     3   ar
     3     3     4   ar
     4     4     5   ar
     5     5     6    1
     6     6     7    2
     7     7     8    1
     8     8     9    1
     9     9    10    1
    10    10    11   ar
    11    11    12   ar
    12    12    13   ar
    13    13    14   ar
    14    14    15   ar
    15    15    10   ar
    16    14    16    1
    17    16    17   am
    18    17    18    2
    19    17    19    1
    20    19    20    1
    21    20    13    1
    22     9    21    2
    23    21    22    1
    24    22    23    1
    25    23     8    2
    26    23    24    1
    27    24    25    1
    28    25    26   ar
    29    26    27   ar
    30    27    28   ar
    31    28    29   ar
    32    29    30   ar
    33    30    25   ar
    34     5    31   ar
    35    31    32   ar
    36    32     2   ar
    37     1    33    1
    38     1    34    1
    39     1    35    1
    40     3    36    1
    41     4    37    1
    42     6    38    1
    43    11    39    1
    44    12    40    1
    45    15    41    1
    46    16    42    1
    47    19    43    1
    48    19    44    1
    49    21    45    1
    50    24    46    1
    51    26    47    1
    52    27    48    1
    53    28    49    1
    54    29    50    1
    55    32    51    1
