@<TRIPOS>MOLECULE
*****
 51 55 0 0 0
SMALL
USER_CHARGES

@<TRIPOS>ATOM
      1 C1         -1.8965    5.9471    1.0655 C.3     1  LIG1        0.0000
      2 C2         -1.1241    4.6362    1.0392 C.3     1  LIG1        0.0000
      3 C3         -1.2874    3.7232    2.0749 C.3     1  LIG1        0.0000
      4 C4         -0.5859    2.5223    2.0605 C.3     1  LIG1        0.0000
      5 C5          0.2751    2.2555    1.0000 C.3     1  LIG1        0.0000
      6 C6          1.0000    1.0000    1.0000 C.2     1  LIG1        0.0000
      7 N7          2.2500    1.0000    1.0000 N.2     1  LIG1        0.0000
      8 N8          2.7985    2.2318    1.0000 N.2     1  LIG1        1.0000
      9 C9          3.1097    2.9261    2.1391 C.2     1  LIG1        0.0000
     10 C10         2.9030    2.4579    3.4967 C.3     1  LIG1        0.0000
     11 C11         3.0634    3.3292    4.5709 C.3     1  LIG1        0.0000
     12 C12         2.8596    2.8636    5.8661 C.3     1  LIG1        0.0000
     13 C13         2.5023    1.5433    6.1306 C.3     1  LIG1        0.0000
     14 C14         2.3474    0.7017    5.0394 C.3     1  LIG1        0.0000
     15 C15         2.5410    1.1353    3.7305 C.3     1  LIG1        0.0000
     16 N16         1.9640   -0.6280    5.2314 N.am    1  LIG1        0.0000
     17 C17         2.0397   -1.1931    6.5068 C.2     1  LIG1        0.0000
     18 O18         1.7363   -2.3662    6.6523 O.2     1  LIG1        0.0000
     19 C19         2.5144   -0.3070    7.6498 C.3     1  LIG1        0.0000
     20 O20         2.3021    1.0746    7.3858 O.2     1  LIG1        0.0000
     21 C21         3.6609    4.1596    1.9682 C.2     1  LIG1        0.0000
     22 S22         3.7379    4.3415    0.2750 S.3     1  LIG1        0.0000
     23 C23         3.0669    2.8348   -0.1350 C.2     1  LIG1        0.0000
     24 N24         2.8460    2.3404   -1.4230 N.pl3   1  LIG1        0.0000
     25 C25         1.6277    2.5858   -2.0675 C.3     1  LIG1        0.0000
     26 C26         0.5939    1.6712   -1.8944 C.3     1  LIG1        0.0000
     27 C27        -0.6214    1.9067   -2.5285 C.3     1  LIG1        0.0000
     28 C28        -0.7856    3.0394   -3.3170 C.3     1  LIG1        0.0000
     29 C29         0.2847    3.9168   -3.4514 C.3     1  LIG1        0.0000
     30 N30         1.4495    3.6733   -2.8330 N.pl3   1  LIG1        0.0000
     31 N31         0.4191    3.1500    0.0094 N.pl3   1  LIG1        0.0000
     32 C32        -0.2489    4.3127    0.0065 C.3     1  LIG1        0.0000
     33 H          -2.4651    5.9826    1.8873 H       1  LIG1        0.0000
     34 H          -1.2534    6.7129    1.0718 H       1  LIG1        0.0000
     35 H          -2.4786    6.0074    0.2546 H       1  LIG1        0.0000
     36 H          -1.9094    3.9299    2.8302 H       1  LIG1        0.0000
     37 H          -0.6985    1.8601    2.8013 H       1  LIG1        0.0000
     38 H           0.5000    0.1340    1.0000 H       1  LIG1        0.0000
     39 H           3.3230    4.2819    4.4127 H       1  LIG1        0.0000
     40 H           2.9733    3.4969    6.6316 H       1  LIG1        0.0000
     41 H           2.4210    0.5020    2.9659 H       1  LIG1        0.0000
     42 H           1.6367   -1.1728    4.4594 H       1  LIG1        0.0000
     43 H           2.0144   -0.5565    8.4791 H       1  LIG1        0.0000
     44 H           3.4923   -0.4609    7.7911 H       1  LIG1        0.0000
     45 H           3.9524    4.8075    2.6718 H       1  LIG1        0.0000
     46 H           3.5581    1.8113   -1.8845 H       1  LIG1        0.0000
     47 H           0.7221    0.8595   -1.3245 H       1  LIG1        0.0000
     48 H          -1.3769    1.2611   -2.4172 H       1  LIG1        0.0000
     49 H          -1.6547    3.2195   -3.7776 H       1  LIG1        0.0000
     50 H           0.1849    4.7372   -4.0145 H       1  LIG1        0.0000
     51 H          -0.1165    4.9558   -0.7477 H       1  LIG1        0.0000
@<TRIPOS>BOND
     1     1     2    1
     2     2     3   ar
     3     3     4   ar
     4     4     5   ar
     5     5     6    1
     6     6     7    2
     7     7     8    1
     8     8     9    1
     9     9    10    1
    10    10    11   ar
    11    11    12   ar
    12    12    13   ar
    13    13    14   ar
    14    14    15   ar
    15    15    10   ar
    16    14    16    1
    17    16    17   am
    18    17    18    2
    19    17    19    1
    20    19    20    1
    21    20    13    1
    22     9    21    2
    23    21    22    1
    24    22    23    1
    25    23     8    2
    26    23    24    1
    27    24    25    1
    28    25    26   ar
    29    26    27   ar
    30    27    28   ar
    31    28    29   ar
    32    29    30   ar
    33    30    25   ar
    34     5    31   ar
    35    31    32   ar
    36    32     2   ar
    37     1    33    1
    38     1    34    1
    39     1    35    1
    40     3    36    1
    41     4    37    1
    42     6    38    1
    43    11    39    1
    44    12    40    1
    45    15    41    1
    46    16    42    1
    47    19    43    1
    48    19    44    1
    49    21    45    1
    50    24    46    1
    51    26    47    1
    52    27    48    1
    53    28    49    1
    54    29    50    1
    55    32    51    1
