@<TRIPOS>MOLECULE
*****
 51 55 0 0 0
SMALL
USER_CHARGES

@<TRIPOS>ATOM
      1 C1         -1.9003    5.9450    0.9371 C.3     1  LIG1        0.0000
      2 C2         -1.1257    4.6353    0.9619 C.3     1  LIG1        0.0000
      3 C3         -1.2890    3.7223   -0.0738 C.3     1  LIG1        0.0000
      4 C4         -0.5859    2.5223   -0.0605 C.3     1  LIG1        0.0000
      5 C5          0.2751    2.2555    1.0000 C.3     1  LIG1        0.0000
      6 C6          1.0000    1.0000    1.0000 C.2     1  LIG1        0.0000
      7 N7          2.2500    1.0000    1.0000 N.2     1  LIG1        0.0000
      8 N8          2.7985    2.2318    1.0000 N.2     1  LIG1        1.0000
      9 C9          2.7504    3.0861   -0.0697 C.2     1  LIG1        0.0000
     10 C10         2.1169    2.8082   -1.3442 C.3     1  LIG1        0.0000
     11 C11         1.4870    1.5886   -1.5677 C.3     1  LIG1        0.0000
     12 C12         0.8801    1.3468   -2.7950 C.3     1  LIG1        0.0000
     13 C13         0.8734    2.2943   -3.8147 C.3     1  LIG1        0.0000
     14 C14         1.5197    3.5034   -3.5842 C.3     1  LIG1        0.0000
     15 C15         2.1312    3.7584   -2.3604 C.3     1  LIG1        0.0000
     16 N16         1.5358    4.4433   -4.6194 N.am    1  LIG1        0.0000
     17 C17         0.6446    4.3519   -5.6952 C.2     1  LIG1        0.0000
     18 O18         0.6197    5.1801   -6.5958 O.2     1  LIG1        0.0000
     19 C19        -0.3004    3.1612   -5.6989 C.3     1  LIG1        0.0000
     20 O20         0.2626    2.0598   -4.9989 O.2     1  LIG1        0.0000
     21 C21         3.3517    4.2972    0.0915 C.2     1  LIG1        0.0000
     22 S22         3.9642    4.2407    1.6813 S.3     1  LIG1        0.0000
     23 C23         3.4216    2.6769    2.0666 C.2     1  LIG1        0.0000
     24 N24         3.6044    2.0028    3.2766 N.pl3   1  LIG1        0.0000
     25 C25         4.7365    1.2017    3.4675 C.3     1  LIG1        0.0000
     26 C26         5.8769    1.7888    4.0058 C.3     1  LIG1        0.0000
     27 C27         7.0065    1.0012    4.2015 C.3     1  LIG1        0.0000
     28 C28         6.9814   -0.3462    3.8615 C.3     1  LIG1        0.0000
     29 C29         5.8117   -0.8756    3.3277 C.3     1  LIG1        0.0000
     30 N30         4.7322   -0.1009    3.1454 N.pl3   1  LIG1        0.0000
     31 N31         0.4191    3.1500    1.9906 N.pl3   1  LIG1        0.0000
     32 C32        -0.2504    4.3118    1.9945 C.3     1  LIG1        0.0000
     33 H          -2.4686    5.9806    0.1150 H       1  LIG1        0.0000
     34 H          -2.4828    6.0031    1.7478 H       1  LIG1        0.0000
     35 H          -1.2585    6.7118    0.9320 H       1  LIG1        0.0000
     36 H          -1.9120    3.9284   -0.8284 H       1  LIG1        0.0000
     37 H          -0.6973    1.8608   -0.8021 H       1  LIG1        0.0000
     38 H           0.5000    0.1340    1.0000 H       1  LIG1        0.0000
     39 H           1.4706    0.8911   -0.8513 H       1  LIG1        0.0000
     40 H           0.4346    0.4650   -2.9500 H       1  LIG1        0.0000
     41 H           2.5868    4.6358   -2.2095 H       1  LIG1        0.0000
     42 H           2.1956    5.1941   -4.5908 H       1  LIG1        0.0000
     43 H          -1.1589    3.4239   -5.2584 H       1  LIG1        0.0000
     44 H          -0.4804    2.8898   -6.6444 H       1  LIG1        0.0000
     45 H           3.4184    5.0453   -0.5687 H       1  LIG1        0.0000
     46 H           2.9266    2.0925    4.0064 H       1  LIG1        0.0000
     47 H           5.8845    2.7591    4.2476 H       1  LIG1        0.0000
     48 H           7.8366    1.4043    4.5868 H       1  LIG1        0.0000
     49 H           7.7871   -0.9225    3.9979 H       1  LIG1        0.0000
     50 H           5.7750   -1.8431    3.0774 H       1  LIG1        0.0000
     51 H          -0.1191    4.9544    2.7494 H       1  LIG1        0.0000
@<TRIPOS>BOND
     1     1     2    1
     2     2     3   ar
     3     3     4   ar
     4     4     5   ar
     5     5     6    1
     6     6     7    2
     7     7     8    1
     8     8     9    1
     9     9    10    1
    10    10    11   ar
    11    11    12   ar
    12    12    13   ar
    13    13    14   ar
    14    14    15   ar
    15    15    10   ar
    16    14    16    1
    17    16    17   am
    18    17    18    2
    19    17    19    1
    20    19    20    1
    21    20    13    1
    22     9    21    2
    23    21    22    1
    24    22    23    1
    25    23     8    2
    26    23    24    1
    27    24    25    1
    28    25    26   ar
    29    26    27   ar
    30    27    28   ar
    31    28    29   ar
    32    29    30   ar
    33    30    25   ar
    34     5    31   ar
    35    31    32   ar
    36    32     2   ar
    37     1    33    1
    38     1    34    1
    39     1    35    1
    40     3    36    1
    41     4    37    1
    42     6    38    1
    43    11    39    1
    44    12    40    1
    45    15    41    1
    46    16    42    1
    47    19    43    1
    48    19    44    1
    49    21    45    1
    50    24    46    1
    51    26    47    1
    52    27    48    1
    53    28    49    1
    54    29    50    1
    55    32    51    1
