@<TRIPOS>MOLECULE
*****
 51 55 0 0 0
SMALL
USER_CHARGES

@<TRIPOS>ATOM
      1 C1         -1.9305    5.9275    1.0025 C.3     1  LIG1        0.0000
      2 C2         -1.1442    4.6246    1.0011 C.3     1  LIG1        0.0000
      3 C3         -1.8254    3.4126    1.0010 C.3     1  LIG1        0.0000
      4 C4         -1.1161    2.2161    1.0000 C.3     1  LIG1        0.0000
      5 C5          0.2751    2.2555    1.0000 C.3     1  LIG1        0.0000
      6 C6          1.0000    1.0000    1.0000 C.2     1  LIG1        0.0000
      7 N7          2.2500    1.0000    1.0000 N.2     1  LIG1        0.0000
      8 N8          2.7985    2.2318    1.0000 N.2     1  LIG1        1.0000
      9 C9          3.6298    2.6946    1.9855 C.2     1  LIG1        0.0000
     10 C10         4.0428    1.9507    3.1598 C.3     1  LIG1        0.0000
     11 C11         3.0999    1.3106    3.9569 C.3     1  LIG1        0.0000
     12 C12         3.5196    0.5972    5.0741 C.3     1  LIG1        0.0000
     13 C13         4.8635    0.4931    5.4214 C.3     1  LIG1        0.0000
     14 C14         5.7947    1.1502    4.6252 C.3     1  LIG1        0.0000
     15 C15         5.3882    1.8678    3.5043 C.3     1  LIG1        0.0000
     16 N16         7.1416    1.0673    4.9914 N.am    1  LIG1        0.0000
     17 C17         7.5920    0.0835    5.8798 C.2     1  LIG1        0.0000
     18 O18         8.7707   -0.0274    6.1898 O.2     1  LIG1        0.0000
     19 C19         6.5392   -0.8508    6.4538 C.3     1  LIG1        0.0000
     20 O20         5.2662   -0.2204    6.4982 O.2     1  LIG1        0.0000
     21 C21         4.1026    3.9629    1.8366 C.2     1  LIG1        0.0000
     22 S22         3.4067    4.4890    0.3721 S.3     1  LIG1        0.0000
     23 C23         2.5485    3.0657    0.0171 C.2     1  LIG1        0.0000
     24 N24         1.7393    2.8332   -1.0980 N.pl3   1  LIG1        0.0000
     25 C25         1.7667    1.5869   -1.7351 C.3     1  LIG1        0.0000
     26 C26         2.9942    0.9503   -1.8865 C.3     1  LIG1        0.0000
     27 C27         3.0323   -0.2893   -2.5162 C.3     1  LIG1        0.0000
     28 C28         1.8574   -0.8694   -2.9797 C.3     1  LIG1        0.0000
     29 C29         0.6611   -0.1842   -2.7987 C.3     1  LIG1        0.0000
     30 N30         0.6435    1.0106   -2.1898 N.pl3   1  LIG1        0.0000
     31 N31         0.9144    3.4360    1.0000 N.pl3   1  LIG1        0.0000
     32 C32         0.2474    4.5992    1.0010 C.3     1  LIG1        0.0000
     33 H          -2.9099    5.7258    1.0023 H       1  LIG1        0.0000
     34 H          -1.6991    6.4556    1.8196 H       1  LIG1        0.0000
     35 H          -1.6992    6.4574    0.1866 H       1  LIG1        0.0000
     36 H          -2.8253    3.4011    1.0018 H       1  LIG1        0.0000
     37 H          -1.5988    1.3403    0.9992 H       1  LIG1        0.0000
     38 H           0.5000    0.1340    1.0000 H       1  LIG1        0.0000
     39 H           2.1278    1.3630    3.7284 H       1  LIG1        0.0000
     40 H           2.8349    0.1450    5.6456 H       1  LIG1        0.0000
     41 H           6.0719    2.3297    2.9392 H       1  LIG1        0.0000
     42 H           7.7949    1.7225    4.6120 H       1  LIG1        0.0000
     43 H           6.4795   -1.6677    5.8801 H       1  LIG1        0.0000
     44 H           6.8061   -1.1135    7.3811 H       1  LIG1        0.0000
     45 H           4.7153    4.4679    2.4445 H       1  LIG1        0.0000
     46 H           1.1406    3.5570   -1.4410 H       1  LIG1        0.0000
     47 H           3.8338    1.3760   -1.5489 H       1  LIG1        0.0000
     48 H           3.9048   -0.7632   -2.6353 H       1  LIG1        0.0000
     49 H           1.8721   -1.7603   -3.4337 H       1  LIG1        0.0000
     50 H          -0.1943   -0.5862   -3.1255 H       1  LIG1        0.0000
     51 H           0.7565    5.4599    1.0017 H       1  LIG1        0.0000
@<TRIPOS>BOND
     1     1     2    1
     2     2     3   ar
     3     3     4   ar
     4     4     5   ar
     5     5     6    1
     6     6     7    2
     7     7     8    1
     8     8     9    1
     9     9    10    1
    10    10    11   ar
    11    11    12   ar
    12    12    13   ar
    13    13    14   ar
    14    14    15   ar
    15    15    10   ar
    16    14    16    1
    17    16    17   am
    18    17    18    2
    19    17    19    1
    20    19    20    1
    21    20    13    1
    22     9    21    2
    23    21    22    1
    24    22    23    1
    25    23     8    2
    26    23    24    1
    27    24    25    1
    28    25    26   ar
    29    26    27   ar
    30    27    28   ar
    31    28    29   ar
    32    29    30   ar
    33    30    25   ar
    34     5    31   ar
    35    31    32   ar
    36    32     2   ar
    37     1    33    1
    38     1    34    1
    39     1    35    1
    40     3    36    1
    41     4    37    1
    42     6    38    1
    43    11    39    1
    44    12    40    1
    45    15    41    1
    46    16    42    1
    47    19    43    1
    48    19    44    1
    49    21    45    1
    50    24    46    1
    51    26    47    1
    52    27    48    1
    53    28    49    1
    54    29    50    1
    55    32    51    1
