@<TRIPOS>MOLECULE
*****
 51 55 0 0 0
SMALL
USER_CHARGES

@<TRIPOS>ATOM
      1 C1         -1.9208    5.9331    1.0393 C.3     1  LIG1        0.0000
      2 C2         -1.1386    4.6278    1.0233 C.3     1  LIG1        0.0000
      3 C3         -1.6810    3.4960    1.6212 C.3     1  LIG1        0.0000
      4 C4         -0.9741    2.2982    1.6123 C.3     1  LIG1        0.0000
      5 C5          0.2751    2.2555    1.0000 C.3     1  LIG1        0.0000
      6 C6          1.0000    1.0000    1.0000 C.2     1  LIG1        0.0000
      7 N7          2.2500    1.0000    1.0000 N.2     1  LIG1        0.0000
      8 N8          2.7985    2.2318    1.0000 N.2     1  LIG1        1.0000
      9 C9          3.8425    2.5999    0.1932 C.2     1  LIG1        0.0000
     10 C10         4.5099    1.7427   -0.7674 C.3     1  LIG1        0.0000
     11 C11         3.7720    1.0082   -1.6894 C.3     1  LIG1        0.0000
     12 C12         4.4336    0.1984   -2.6057 C.3     1  LIG1        0.0000
     13 C13         5.8218    0.1024   -2.6387 C.3     1  LIG1        0.0000
     14 C14         6.5472    0.8299   -1.7020 C.3     1  LIG1        0.0000
     15 C15         5.8977    1.6442   -0.7791 C.3     1  LIG1        0.0000
     16 N16         7.9404    0.7108   -1.7188 N.am    1  LIG1        0.0000
     17 C17         8.6103    0.1952   -2.8347 C.2     1  LIG1        0.0000
     18 O18         9.8302    0.1111   -2.8837 O.2     1  LIG1        0.0000
     19 C19         7.7454   -0.2661   -3.9966 C.3     1  LIG1        0.0000
     20 O20         6.4595   -0.6715   -3.5469 O.2     1  LIG1        0.0000
     21 C21         4.2804    3.8837    0.3127 C.2     1  LIG1        0.0000
     22 S22         3.2693    4.5501    1.5126 S.3     1  LIG1        0.0000
     23 C23         2.3337    3.1613    1.8026 C.2     1  LIG1        0.0000
     24 N24         1.2820    3.0368    2.7139 N.pl3   1  LIG1        0.0000
     25 C25         1.1429    1.8645    3.4664 C.3     1  LIG1        0.0000
     26 C26         2.2917    1.2655    3.9728 C.3     1  LIG1        0.0000
     27 C27         2.1644    0.1016    4.7236 C.3     1  LIG1        0.0000
     28 C28         0.9062   -0.4410    4.9561 C.3     1  LIG1        0.0000
     29 C29        -0.2048    0.2039    4.4238 C.3     1  LIG1        0.0000
     30 N30        -0.0630    1.3251    3.7017 N.pl3   1  LIG1        0.0000
     31 N31         0.7817    3.3593    0.4281 N.pl3   1  LIG1        0.0000
     32 C32         0.1146    4.5226    0.4270 C.3     1  LIG1        0.0000
     33 H          -2.7902    5.7949    1.5136 H       1  LIG1        0.0000
     34 H          -1.3895    6.6343    1.5146 H       1  LIG1        0.0000
     35 H          -2.0967    6.2278    0.1000 H       1  LIG1        0.0000
     36 H          -2.5795    3.5430    2.0577 H       1  LIG1        0.0000
     37 H          -1.3578    1.4795    2.0395 H       1  LIG1        0.0000
     38 H           0.5000    0.1340    1.0000 H       1  LIG1        0.0000
     39 H           2.7734    1.0619   -1.6932 H       1  LIG1        0.0000
     40 H           3.8955   -0.3314   -3.2613 H       1  LIG1        0.0000
     41 H           6.4352    2.1651   -0.1160 H       1  LIG1        0.0000
     42 H           8.4676    0.9991   -0.9195 H       1  LIG1        0.0000
     43 H           7.6419    0.4872   -4.6461 H       1  LIG1        0.0000
     44 H           8.1914   -1.0380   -4.4497 H       1  LIG1        0.0000
     45 H           5.0221    4.3313   -0.1868 H       1  LIG1        0.0000
     46 H           0.6286    3.7851    2.8286 H       1  LIG1        0.0000
     47 H           3.1924    1.6642    3.8001 H       1  LIG1        0.0000
     48 H           2.9781   -0.3447    5.0961 H       1  LIG1        0.0000
     49 H           0.8021   -1.2771    5.4946 H       1  LIG1        0.0000
     50 H          -1.1181   -0.1718    4.5810 H       1  LIG1        0.0000
     51 H           0.5230    5.3250   -0.0080 H       1  LIG1        0.0000
@<TRIPOS>BOND
     1     1     2    1
     2     2     3   ar
     3     3     4   ar
     4     4     5   ar
     5     5     6    1
     6     6     7    2
     7     7     8    1
     8     8     9    1
     9     9    10    1
    10    10    11   ar
    11    11    12   ar
    12    12    13   ar
    13    13    14   ar
    14    14    15   ar
    15    15    10   ar
    16    14    16    1
    17    16    17   am
    18    17    18    2
    19    17    19    1
    20    19    20    1
    21    20    13    1
    22     9    21    2
    23    21    22    1
    24    22    23    1
    25    23     8    2
    26    23    24    1
    27    24    25    1
    28    25    26   ar
    29    26    27   ar
    30    27    28   ar
    31    28    29   ar
    32    29    30   ar
    33    30    25   ar
    34     5    31   ar
    35    31    32   ar
    36    32     2   ar
    37     1    33    1
    38     1    34    1
    39     1    35    1
    40     3    36    1
    41     4    37    1
    42     6    38    1
    43    11    39    1
    44    12    40    1
    45    15    41    1
    46    16    42    1
    47    19    43    1
    48    19    44    1
    49    21    45    1
    50    24    46    1
    51    26    47    1
    52    27    48    1
    53    28    49    1
    54    29    50    1
    55    32    51    1
