@<TRIPOS>MOLECULE
*****
 20 22 0 0 0
SMALL
USER_CHARGES

@<TRIPOS>ATOM
      1 O1          1.0000    1.0000    1.0000 O.2     1  LIG1        0.0000
      2 C2          2.2178    1.0000    1.0000 C.2     1  LIG1        0.0000
      3 O3          3.0044    2.0502    0.9832 O.3     1  LIG1        0.0000
      4 C4          4.3106    1.8100    0.9913 C.3     1  LIG1        0.0000
      5 C5          4.6464    0.4733    1.0039 C.3     1  LIG1        0.0000
      6 C6          5.9111   -0.0925    1.0102 C.3     1  LIG1        0.0000
      7 C7          6.9720    0.7988    1.0017 C.3     1  LIG1        0.0000
      8 C8          6.7212    2.1624    0.9877 C.3     1  LIG1        0.0000
      9 C9          7.8286    2.9980    0.9778 C.3     1  LIG1        0.0000
     10 C10         7.6217    4.3730    0.9636 C.3     1  LIG1        0.0000
     11 C11         6.3326    4.8932    0.9593 C.3     1  LIG1        0.0000
     12 C12         5.2368    4.0367    0.9684 C.3     1  LIG1        0.0000
     13 C13         5.4159    2.6575    0.9831 C.3     1  LIG1        0.0000
     14 S14         3.1875   -0.3957    1.0187 S.3     1  LIG1        0.0000
     15 H           6.0497   -1.0828    1.0203 H       1  LIG1        0.0000
     16 H           7.9130    0.4605    1.0056 H       1  LIG1        0.0000
     17 H           8.7545    2.6201    0.9807 H       1  LIG1        0.0000
     18 H           8.4066    4.9926    0.9565 H       1  LIG1        0.0000
     19 H           6.1931    5.8834    0.9496 H       1  LIG1        0.0000
     20 H           4.3115    4.4161    0.9644 H       1  LIG1        0.0000
@<TRIPOS>BOND
     1     1     2    2
     2     2     3    1
     3     3     4    1
     4     4     5   ar
     5     5     6   ar
     6     6     7   ar
     7     7     8   ar
     8     8     9   ar
     9     9    10   ar
    10    10    11   ar
    11    11    12   ar
    12    12    13   ar
    13    13     8   ar
    14    13     4   ar
    15     5    14    1
    16    14     2    1
    17     6    15    1
    18     7    16    1
    19     9    17    1
    20    10    18    1
    21    11    19    1
    22    12    20    1
