@<TRIPOS>MOLECULE

  59   63
SMALL
USER_CHARGES
@<TRIPOS>ATOM
   1 C1           1.3931     3.5168     0.0025 C.3          1    LIG   0.0000
   2 N2           1.3820     2.0474     0.0363 N.4          1    LIG   1.0000
   3 C3           2.0728     1.6480     1.2735 C.3          1    LIG   0.0000
   4 C4           2.0915     0.1371     1.4521 C.3          1    LIG   0.0000
   5 N5           0.7679    -0.4520     1.1946 N.pl3        1    LIG   0.0000
   6 C6           0.3816    -1.5829     1.9269 C.ar         1    LIG   0.0000
   7 N7           1.1914    -2.1412     2.8403 N.ar         1    LIG   0.0000
   8 C8           0.8588    -3.2486     3.5303 C.ar         1    LIG   0.0000
   9 C9          -0.3684    -3.8508     3.2897 C.ar         1    LIG   0.0000
  10 C10         -1.2208    -3.2420     2.3675 C.ar         1    LIG   0.0000
  11 C11         -2.5338    -3.7766     2.0614 C.ar         1    LIG   0.0000
  12 C12         -2.9791    -3.7955     0.7437 C.ar         1    LIG   0.0000
  13 C13         -4.2399    -4.3094     0.4593 C.ar         1    LIG   0.0000
  14 C14         -5.0409    -4.7976     1.4872 C.ar         1    LIG   0.0000
  15 C15         -4.5874    -4.7750     2.8020 C.ar         1    LIG   0.0000
  16 C16         -3.3278    -4.2621     3.0952 C.ar         1    LIG   0.0000
  17 N17         -0.8181    -2.1440     1.7164 N.ar         1    LIG   0.0000
  18 C18         -0.7339    -5.1411     4.0132 C.3          1    LIG   0.0000
  19 C19          0.4897    -6.0427     3.9540 C.3          1    LIG   0.0000
  20 C20          1.7712    -5.4092     4.4821 C.3          1    LIG   0.0000
  21 C21          1.7168    -3.8884     4.5075 C.2          1    LIG   0.0000
  22 C22          2.4240    -3.1824     5.3720 C.2          1    LIG   0.0000
  23 C23          3.2724    -3.8559     6.3364 C.ar         1    LIG   0.0000
  24 C24          2.7088    -4.7429     7.2477 C.ar         1    LIG   0.0000
  25 C25          3.5298    -5.3838     8.1696 C.ar         1    LIG   0.0000
  26 C26          4.8990    -5.1355     8.1734 C.ar         1    LIG   0.0000
  27 C27          5.4541    -4.2471     7.2581 C.ar         1    LIG   0.0000
  28 C28          4.6399    -3.6013     6.3332 C.ar         1    LIG   0.0000
  29 C29         -0.1643     0.1094     0.2033 C.3          1    LIG   0.0000
  30 C30         -0.0263     1.6207     0.0909 C.3          1    LIG   0.0000
  31 H            1.8399     1.6676    -0.7675 H            1    LIG   0.0000
  32 H            0.9316     3.8347    -0.8258 H            1    LIG   0.0000
  33 H            0.9168     3.8724     0.8067 H            1    LIG   0.0000
  34 H            2.3383     3.8432     0.0036 H            1    LIG   0.0000
  35 H            1.6019     2.0597     2.0537 H            1    LIG   0.0000
  36 H            3.0151     1.9810     1.2393 H            1    LIG   0.0000
  37 H            2.7527    -0.2575     0.8140 H            1    LIG   0.0000
  38 H            2.3653    -0.0760     2.3900 H            1    LIG   0.0000
  39 H           -2.3991    -3.4435     0.0090 H            1    LIG   0.0000
  40 H           -4.5709    -4.3279    -0.4842 H            1    LIG   0.0000
  41 H           -5.9469    -5.1664     1.2796 H            1    LIG   0.0000
  42 H           -5.1669    -5.1276     3.5367 H            1    LIG   0.0000
  43 H           -2.9969    -4.2428     4.0387 H            1    LIG   0.0000
  44 H           -1.5083    -5.5821     3.5596 H            1    LIG   0.0000
  45 H           -0.9717    -4.9462     4.9647 H            1    LIG   0.0000
  46 H            0.6402    -6.3020     2.9999 H            1    LIG   0.0000
  47 H            0.3003    -6.8615     4.4959 H            1    LIG   0.0000
  48 H            1.9288    -5.7379     5.4133 H            1    LIG   0.0000
  49 H            2.5309    -5.6910     3.8961 H            1    LIG   0.0000
  50 H            2.3743    -2.1837     5.3613 H            1    LIG   0.0000
  51 H            1.7242    -4.9177     7.2403 H            1    LIG   0.0000
  52 H            3.1359    -6.0234     8.8298 H            1    LIG   0.0000
  53 H            5.4867    -5.5978     8.8374 H            1    LIG   0.0000
  54 H            6.4387    -4.0727     7.2650 H            1    LIG   0.0000
  55 H            5.0334    -2.9611     5.6733 H            1    LIG   0.0000
  56 H           -1.1003    -0.1107     0.4781 H            1    LIG   0.0000
  57 H            0.0262    -0.3004    -0.6887 H            1    LIG   0.0000
  58 H           -0.4877     1.9253    -0.7423 H            1    LIG   0.0000
  59 H           -0.4605     2.0439     0.8862 H            1    LIG   0.0000
@<TRIPOS>BOND
   1        1        2 1
   2        2        3 1
   3        3        4 1
   4        4        5 1
   5        5        6 1
   6        6        7 ar
   7        7        8 ar
   8        8        9 ar
   9        9       10 ar
  10       10       11 1
  11       11       12 ar
  12       12       13 ar
  13       13       14 ar
  14       14       15 ar
  15       15       16 ar
  16       16       11 ar
  17       10       17 ar
  18       17        6 ar
  19        9       18 1
  20       18       19 1
  21       19       20 1
  22       20       21 1
  23       21        8 1
  24       21       22 2
  25       22       23 1
  26       23       24 ar
  27       24       25 ar
  28       25       26 ar
  29       26       27 ar
  30       27       28 ar
  31       28       23 ar
  32        5       29 1
  33       29       30 1
  34       30        2 1
  35        2       31 1
  36        1       32 1
  37        1       33 1
  38        1       34 1
  39        3       35 1
  40        3       36 1
  41        4       37 1
  42        4       38 1
  43       12       39 1
  44       13       40 1
  45       14       41 1
  46       15       42 1
  47       16       43 1
  48       18       44 1
  49       18       45 1
  50       19       46 1
  51       19       47 1
  52       20       48 1
  53       20       49 1
  54       22       50 1
  55       24       51 1
  56       25       52 1
  57       26       53 1
  58       27       54 1
  59       28       55 1
  60       29       56 1
  61       29       57 1
  62       30       58 1
  63       30       59 1

@<TRIPOS>MOLECULE

  59   63
SMALL
USER_CHARGES
@<TRIPOS>ATOM
   1 C1           1.3931     3.5168     0.0025 C.3          1    LIG   0.0000
   2 N2           1.3820     2.0474     0.0363 N.4          1    LIG   1.0000
   3 C3           2.0728     1.6480     1.2735 C.3          1    LIG   0.0000
   4 C4           2.0915     0.1371     1.4521 C.3          1    LIG   0.0000
   5 N5           0.7679    -0.4520     1.1946 N.pl3        1    LIG   0.0000
   6 C6           0.3816    -1.5829     1.9269 C.ar         1    LIG   0.0000
   7 N7           1.1914    -2.1412     2.8403 N.ar         1    LIG   0.0000
   8 C8           0.8588    -3.2486     3.5303 C.ar         1    LIG   0.0000
   9 C9          -0.3684    -3.8508     3.2897 C.ar         1    LIG   0.0000
  10 C10         -1.2208    -3.2420     2.3675 C.ar         1    LIG   0.0000
  11 C11         -2.5338    -3.7766     2.0614 C.ar         1    LIG   0.0000
  12 C12         -2.9791    -3.7955     0.7437 C.ar         1    LIG   0.0000
  13 C13         -4.2399    -4.3094     0.4593 C.ar         1    LIG   0.0000
  14 C14         -5.0409    -4.7976     1.4872 C.ar         1    LIG   0.0000
  15 C15         -4.5874    -4.7750     2.8020 C.ar         1    LIG   0.0000
  16 C16         -3.3278    -4.2621     3.0952 C.ar         1    LIG   0.0000
  17 N17         -0.8181    -2.1440     1.7164 N.ar         1    LIG   0.0000
  18 C18         -0.7339    -5.1411     4.0132 C.3          1    LIG   0.0000
  19 C19          0.4897    -6.0427     3.9540 C.3          1    LIG   0.0000
  20 C20          1.7712    -5.4092     4.4821 C.3          1    LIG   0.0000
  21 C21          1.7168    -3.8884     4.5075 C.2          1    LIG   0.0000
  22 C22          2.4240    -3.1824     5.3720 C.2          1    LIG   0.0000
  23 C23          3.2724    -3.8559     6.3364 C.ar         1    LIG   0.0000
  24 C24          4.3023    -4.6781     5.8912 C.ar         1    LIG   0.0000
  25 C25          5.1105    -5.3207     6.8230 C.ar         1    LIG   0.0000
  26 C26          4.8852    -5.1378     8.1840 C.ar         1    LIG   0.0000
  27 C27          3.8531    -4.3134     8.6202 C.ar         1    LIG   0.0000
  28 C28          3.0395    -3.6675     7.6948 C.ar         1    LIG   0.0000
  29 C29         -0.1643     0.1094     0.2033 C.3          1    LIG   0.0000
  30 C30         -0.0263     1.6207     0.0909 C.3          1    LIG   0.0000
  31 H            1.8399     1.6676    -0.7675 H            1    LIG   0.0000
  32 H            0.9316     3.8347    -0.8258 H            1    LIG   0.0000
  33 H            0.9168     3.8724     0.8067 H            1    LIG   0.0000
  34 H            2.3383     3.8432     0.0036 H            1    LIG   0.0000
  35 H            1.6019     2.0597     2.0537 H            1    LIG   0.0000
  36 H            3.0151     1.9810     1.2393 H            1    LIG   0.0000
  37 H            2.7527    -0.2575     0.8140 H            1    LIG   0.0000
  38 H            2.3653    -0.0760     2.3900 H            1    LIG   0.0000
  39 H           -2.3991    -3.4435     0.0090 H            1    LIG   0.0000
  40 H           -4.5709    -4.3279    -0.4842 H            1    LIG   0.0000
  41 H           -5.9469    -5.1664     1.2796 H            1    LIG   0.0000
  42 H           -5.1669    -5.1276     3.5367 H            1    LIG   0.0000
  43 H           -2.9969    -4.2428     4.0387 H            1    LIG   0.0000
  44 H           -1.5083    -5.5821     3.5596 H            1    LIG   0.0000
  45 H           -0.9717    -4.9462     4.9647 H            1    LIG   0.0000
  46 H            0.6402    -6.3020     2.9999 H            1    LIG   0.0000
  47 H            0.3003    -6.8615     4.4959 H            1    LIG   0.0000
  48 H            1.9288    -5.7379     5.4133 H            1    LIG   0.0000
  49 H            2.5309    -5.6910     3.8961 H            1    LIG   0.0000
  50 H            2.3743    -2.1837     5.3613 H            1    LIG   0.0000
  51 H            4.4598    -4.8058     4.9119 H            1    LIG   0.0000
  52 H            5.8539    -5.9144     6.5149 H            1    LIG   0.0000
  53 H            5.4680    -5.6011     8.8516 H            1    LIG   0.0000
  54 H            3.6958    -4.1851     9.5994 H            1    LIG   0.0000
  55 H            2.2956    -3.0743     8.0027 H            1    LIG   0.0000
  56 H           -1.1003    -0.1107     0.4781 H            1    LIG   0.0000
  57 H            0.0262    -0.3004    -0.6887 H            1    LIG   0.0000
  58 H           -0.4877     1.9253    -0.7423 H            1    LIG   0.0000
  59 H           -0.4605     2.0439     0.8862 H            1    LIG   0.0000
@<TRIPOS>BOND
   1        1        2 1
   2        2        3 1
   3        3        4 1
   4        4        5 1
   5        5        6 1
   6        6        7 ar
   7        7        8 ar
   8        8        9 ar
   9        9       10 ar
  10       10       11 1
  11       11       12 ar
  12       12       13 ar
  13       13       14 ar
  14       14       15 ar
  15       15       16 ar
  16       16       11 ar
  17       10       17 ar
  18       17        6 ar
  19        9       18 1
  20       18       19 1
  21       19       20 1
  22       20       21 1
  23       21        8 1
  24       21       22 2
  25       22       23 1
  26       23       24 ar
  27       24       25 ar
  28       25       26 ar
  29       26       27 ar
  30       27       28 ar
  31       28       23 ar
  32        5       29 1
  33       29       30 1
  34       30        2 1
  35        2       31 1
  36        1       32 1
  37        1       33 1
  38        1       34 1
  39        3       35 1
  40        3       36 1
  41        4       37 1
  42        4       38 1
  43       12       39 1
  44       13       40 1
  45       14       41 1
  46       15       42 1
  47       16       43 1
  48       18       44 1
  49       18       45 1
  50       19       46 1
  51       19       47 1
  52       20       48 1
  53       20       49 1
  54       22       50 1
  55       24       51 1
  56       25       52 1
  57       26       53 1
  58       27       54 1
  59       28       55 1
  60       29       56 1
  61       29       57 1
  62       30       58 1
  63       30       59 1

@<TRIPOS>MOLECULE

  59   63
SMALL
USER_CHARGES
@<TRIPOS>ATOM
   1 C1           1.3931     3.5168     0.0025 C.3          1    LIG   0.0000
   2 N2           1.3820     2.0474     0.0363 N.4          1    LIG   1.0000
   3 C3           2.0728     1.6480     1.2735 C.3          1    LIG   0.0000
   4 C4           2.0915     0.1371     1.4521 C.3          1    LIG   0.0000
   5 N5           0.7679    -0.4520     1.1946 N.pl3        1    LIG   0.0000
   6 C6           0.3816    -1.5829     1.9269 C.ar         1    LIG   0.0000
   7 N7          -0.8166    -2.1615     1.7497 N.ar         1    LIG   0.0000
   8 C8          -1.2258    -3.2257     2.4658 C.ar         1    LIG   0.0000
   9 C9          -0.3837    -3.7506     3.4362 C.ar         1    LIG   0.0000
  10 C10          0.8756    -3.1684     3.5872 C.ar         1    LIG   0.0000
  11 C11          1.8394    -3.6558     4.5551 C.ar         1    LIG   0.0000
  12 C12          2.5882    -2.7487     5.2976 C.ar         1    LIG   0.0000
  13 C13          3.5107    -3.2250     6.2232 C.ar         1    LIG   0.0000
  14 C14          3.6768    -4.5954     6.3988 C.ar         1    LIG   0.0000
  15 C15          2.9235    -5.4954     5.6521 C.ar         1    LIG   0.0000
  16 C16          1.9990    -5.0274     4.7237 C.ar         1    LIG   0.0000
  17 N17          1.2100    -2.1086     2.8411 N.ar         1    LIG   0.0000
  18 C18         -0.8561    -4.9130     4.3009 C.3          1    LIG   0.0000
  19 C19         -2.2778    -4.5913     4.7355 C.3          1    LIG   0.0000
  20 C20         -3.2349    -4.2751     3.5924 C.3          1    LIG   0.0000
  21 C21         -2.5195    -3.8613     2.3144 C.2          1    LIG   0.0000
  22 C22         -3.0543    -4.0623     1.1229 C.2          1    LIG   0.0000
  23 C23         -4.3510    -4.7014     1.0085 C.ar         1    LIG   0.0000
  24 C24         -4.5301    -5.9885     1.5048 C.ar         1    LIG   0.0000
  25 C25         -5.7770    -6.5942     1.3902 C.ar         1    LIG   0.0000
  26 C26         -6.8288    -5.9133     0.7847 C.ar         1    LIG   0.0000
  27 C27         -6.6407    -4.6263     0.2914 C.ar         1    LIG   0.0000
  28 C28         -5.3966    -4.0135     0.4014 C.ar         1    LIG   0.0000
  29 C29         -0.1643     0.1094     0.2033 C.3          1    LIG   0.0000
  30 C30         -0.0263     1.6207     0.0909 C.3          1    LIG   0.0000
  31 H            1.8399     1.6676    -0.7675 H            1    LIG   0.0000
  32 H            0.9316     3.8347    -0.8258 H            1    LIG   0.0000
  33 H            0.9168     3.8724     0.8067 H            1    LIG   0.0000
  34 H            2.3383     3.8432     0.0036 H            1    LIG   0.0000
  35 H            1.6019     2.0597     2.0537 H            1    LIG   0.0000
  36 H            3.0151     1.9810     1.2393 H            1    LIG   0.0000
  37 H            2.7527    -0.2575     0.8140 H            1    LIG   0.0000
  38 H            2.3653    -0.0760     2.3900 H            1    LIG   0.0000
  39 H            2.4645    -1.7649     5.1675 H            1    LIG   0.0000
  40 H            4.0549    -2.5824     6.7626 H            1    LIG   0.0000
  41 H            4.3409    -4.9348     7.0650 H            1    LIG   0.0000
  42 H            3.0465    -6.4792     5.7826 H            1    LIG   0.0000
  43 H            1.4553    -5.6698     4.1837 H            1    LIG   0.0000
  44 H           -0.2649    -5.0084     5.1017 H            1    LIG   0.0000
  45 H           -0.8418    -5.7623     3.7730 H            1    LIG   0.0000
  46 H           -2.2460    -3.7983     5.3439 H            1    LIG   0.0000
  47 H           -2.6374    -5.3799     5.2343 H            1    LIG   0.0000
  48 H           -3.7829    -5.0894     3.4014 H            1    LIG   0.0000
  49 H           -3.8357    -3.5282     3.8773 H            1    LIG   0.0000
  50 H           -2.5648    -3.7736     0.3001 H            1    LIG   0.0000
  51 H           -3.7708    -6.4730     1.9392 H            1    LIG   0.0000
  52 H           -5.9176    -7.5192     1.7430 H            1    LIG   0.0000
  53 H           -7.7241    -6.3514     0.7037 H            1    LIG   0.0000
  54 H           -7.4001    -4.1414    -0.1424 H            1    LIG   0.0000
  55 H           -5.2555    -3.0887     0.0479 H            1    LIG   0.0000
  56 H           -1.1003    -0.1107     0.4781 H            1    LIG   0.0000
  57 H            0.0262    -0.3004    -0.6887 H            1    LIG   0.0000
  58 H           -0.4877     1.9253    -0.7423 H            1    LIG   0.0000
  59 H           -0.4605     2.0439     0.8862 H            1    LIG   0.0000
@<TRIPOS>BOND
   1        1        2 1
   2        2        3 1
   3        3        4 1
   4        4        5 1
   5        5        6 1
   6        6        7 ar
   7        7        8 ar
   8        8        9 ar
   9        9       10 ar
  10       10       11 1
  11       11       12 ar
  12       12       13 ar
  13       13       14 ar
  14       14       15 ar
  15       15       16 ar
  16       16       11 ar
  17       10       17 ar
  18       17        6 ar
  19        9       18 1
  20       18       19 1
  21       19       20 1
  22       20       21 1
  23       21        8 1
  24       21       22 2
  25       22       23 1
  26       23       24 ar
  27       24       25 ar
  28       25       26 ar
  29       26       27 ar
  30       27       28 ar
  31       28       23 ar
  32        5       29 1
  33       29       30 1
  34       30        2 1
  35        2       31 1
  36        1       32 1
  37        1       33 1
  38        1       34 1
  39        3       35 1
  40        3       36 1
  41        4       37 1
  42        4       38 1
  43       12       39 1
  44       13       40 1
  45       14       41 1
  46       15       42 1
  47       16       43 1
  48       18       44 1
  49       18       45 1
  50       19       46 1
  51       19       47 1
  52       20       48 1
  53       20       49 1
  54       22       50 1
  55       24       51 1
  56       25       52 1
  57       26       53 1
  58       27       54 1
  59       28       55 1
  60       29       56 1
  61       29       57 1
  62       30       58 1
  63       30       59 1

@<TRIPOS>MOLECULE

  59   63
SMALL
USER_CHARGES
@<TRIPOS>ATOM
   1 C1           1.3931     3.5168     0.0025 C.3          1    LIG   0.0000
   2 N2           1.3820     2.0474     0.0363 N.4          1    LIG   1.0000
   3 C3           2.0728     1.6480     1.2735 C.3          1    LIG   0.0000
   4 C4           2.0915     0.1371     1.4521 C.3          1    LIG   0.0000
   5 N5           0.7679    -0.4520     1.1946 N.pl3        1    LIG   0.0000
   6 C6           0.3816    -1.5829     1.9269 C.ar         1    LIG   0.0000
   7 N7          -0.8166    -2.1615     1.7497 N.ar         1    LIG   0.0000
   8 C8          -1.2258    -3.2257     2.4658 C.ar         1    LIG   0.0000
   9 C9          -0.3837    -3.7506     3.4362 C.ar         1    LIG   0.0000
  10 C10          0.8756    -3.1684     3.5872 C.ar         1    LIG   0.0000
  11 C11          1.8394    -3.6558     4.5551 C.ar         1    LIG   0.0000
  12 C12          2.5882    -2.7487     5.2976 C.ar         1    LIG   0.0000
  13 C13          3.5107    -3.2250     6.2232 C.ar         1    LIG   0.0000
  14 C14          3.6768    -4.5954     6.3988 C.ar         1    LIG   0.0000
  15 C15          2.9235    -5.4954     5.6521 C.ar         1    LIG   0.0000
  16 C16          1.9990    -5.0274     4.7237 C.ar         1    LIG   0.0000
  17 N17          1.2100    -2.1086     2.8411 N.ar         1    LIG   0.0000
  18 C18         -0.8561    -4.9130     4.3009 C.3          1    LIG   0.0000
  19 C19         -2.2778    -4.5913     4.7355 C.3          1    LIG   0.0000
  20 C20         -3.2349    -4.2751     3.5924 C.3          1    LIG   0.0000
  21 C21         -2.5195    -3.8613     2.3144 C.2          1    LIG   0.0000
  22 C22         -3.0543    -4.0623     1.1229 C.2          1    LIG   0.0000
  23 C23         -4.3510    -4.7014     1.0085 C.ar         1    LIG   0.0000
  24 C24         -5.4619    -4.1164     1.6073 C.ar         1    LIG   0.0000
  25 C25         -6.7016    -4.7367     1.4931 C.ar         1    LIG   0.0000
  26 C26         -6.8211    -5.9291     0.7858 C.ar         1    LIG   0.0000
  27 C27         -5.7048    -6.5070     0.1899 C.ar         1    LIG   0.0000
  28 C28         -4.4610    -5.8934     0.2999 C.ar         1    LIG   0.0000
  29 C29         -0.1643     0.1094     0.2033 C.3          1    LIG   0.0000
  30 C30         -0.0263     1.6207     0.0909 C.3          1    LIG   0.0000
  31 H            1.8399     1.6676    -0.7675 H            1    LIG   0.0000
  32 H            0.9316     3.8347    -0.8258 H            1    LIG   0.0000
  33 H            0.9168     3.8724     0.8067 H            1    LIG   0.0000
  34 H            2.3383     3.8432     0.0036 H            1    LIG   0.0000
  35 H            1.6019     2.0597     2.0537 H            1    LIG   0.0000
  36 H            3.0151     1.9810     1.2393 H            1    LIG   0.0000
  37 H            2.7527    -0.2575     0.8140 H            1    LIG   0.0000
  38 H            2.3653    -0.0760     2.3900 H            1    LIG   0.0000
  39 H            2.4645    -1.7649     5.1675 H            1    LIG   0.0000
  40 H            4.0549    -2.5824     6.7626 H            1    LIG   0.0000
  41 H            4.3409    -4.9348     7.0650 H            1    LIG   0.0000
  42 H            3.0465    -6.4792     5.7826 H            1    LIG   0.0000
  43 H            1.4553    -5.6698     4.1837 H            1    LIG   0.0000
  44 H           -0.2649    -5.0084     5.1017 H            1    LIG   0.0000
  45 H           -0.8418    -5.7623     3.7730 H            1    LIG   0.0000
  46 H           -2.2460    -3.7983     5.3439 H            1    LIG   0.0000
  47 H           -2.6374    -5.3799     5.2343 H            1    LIG   0.0000
  48 H           -3.7829    -5.0894     3.4014 H            1    LIG   0.0000
  49 H           -3.8357    -3.5282     3.8773 H            1    LIG   0.0000
  50 H           -2.5648    -3.7736     0.3001 H            1    LIG   0.0000
  51 H           -5.3703    -3.2593     2.1142 H            1    LIG   0.0000
  52 H           -7.5074    -4.3256     1.9195 H            1    LIG   0.0000
  53 H           -7.7137    -6.3727     0.7054 H            1    LIG   0.0000
  54 H           -5.7964    -7.3637    -0.3176 H            1    LIG   0.0000
  55 H           -3.6550    -6.3047    -0.1258 H            1    LIG   0.0000
  56 H           -1.1003    -0.1107     0.4781 H            1    LIG   0.0000
  57 H            0.0262    -0.3004    -0.6887 H            1    LIG   0.0000
  58 H           -0.4877     1.9253    -0.7423 H            1    LIG   0.0000
  59 H           -0.4605     2.0439     0.8862 H            1    LIG   0.0000
@<TRIPOS>BOND
   1        1        2 1
   2        2        3 1
   3        3        4 1
   4        4        5 1
   5        5        6 1
   6        6        7 ar
   7        7        8 ar
   8        8        9 ar
   9        9       10 ar
  10       10       11 1
  11       11       12 ar
  12       12       13 ar
  13       13       14 ar
  14       14       15 ar
  15       15       16 ar
  16       16       11 ar
  17       10       17 ar
  18       17        6 ar
  19        9       18 1
  20       18       19 1
  21       19       20 1
  22       20       21 1
  23       21        8 1
  24       21       22 2
  25       22       23 1
  26       23       24 ar
  27       24       25 ar
  28       25       26 ar
  29       26       27 ar
  30       27       28 ar
  31       28       23 ar
  32        5       29 1
  33       29       30 1
  34       30        2 1
  35        2       31 1
  36        1       32 1
  37        1       33 1
  38        1       34 1
  39        3       35 1
  40        3       36 1
  41        4       37 1
  42        4       38 1
  43       12       39 1
  44       13       40 1
  45       14       41 1
  46       15       42 1
  47       16       43 1
  48       18       44 1
  49       18       45 1
  50       19       46 1
  51       19       47 1
  52       20       48 1
  53       20       49 1
  54       22       50 1
  55       24       51 1
  56       25       52 1
  57       26       53 1
  58       27       54 1
  59       28       55 1
  60       29       56 1
  61       29       57 1
  62       30       58 1
  63       30       59 1

@<TRIPOS>MOLECULE

  59   63
SMALL
USER_CHARGES
@<TRIPOS>ATOM
   1 C1           1.3931     3.5168     0.0025 C.3          1    LIG   0.0000
   2 N2           1.3820     2.0474     0.0363 N.4          1    LIG   1.0000
   3 C3           2.0728     1.6480     1.2735 C.3          1    LIG   0.0000
   4 C4           2.0915     0.1371     1.4521 C.3          1    LIG   0.0000
   5 N5           0.7679    -0.4520     1.1946 N.pl3        1    LIG   0.0000
   6 C6           0.3810    -1.5845     1.9279 C.ar         1    LIG   0.0000
   7 N7           1.1616    -2.1476     2.8659 N.ar         1    LIG   0.0000
   8 C8           0.7766    -3.2160     3.5926 C.ar         1    LIG   0.0000
   9 C9          -0.4814    -3.7563     3.3835 C.ar         1    LIG   0.0000
  10 C10         -1.2653    -3.1888     2.3894 C.ar         1    LIG   0.0000
  11 C11         -2.5893    -3.6951     2.0829 C.ar         1    LIG   0.0000
  12 C12         -3.6256    -2.8027     1.8285 C.ar         1    LIG   0.0000
  13 C13         -4.8924    -3.2971     1.5361 C.ar         1    LIG   0.0000
  14 C14         -5.1125    -4.6706     1.4999 C.ar         1    LIG   0.0000
  15 C15         -4.0703    -5.5558     1.7553 C.ar         1    LIG   0.0000
  16 C16         -2.8003    -5.0697     2.0493 C.ar         1    LIG   0.0000
  17 N17         -0.8225    -2.1298     1.7020 N.ar         1    LIG   0.0000
  18 C18         -0.9348    -4.9105     4.2740 C.3          1    LIG   0.0000
  19 C19         -0.5780    -4.5282     5.7006 C.3          1    LIG   0.0000
  20 C20          0.9032    -4.2423     5.9148 C.3          1    LIG   0.0000
  21 C21          1.5893    -3.8309     4.6204 C.2          1    LIG   0.0000
  22 C22          2.8883    -4.0385     4.4918 C.2          1    LIG   0.0000
  23 C23          3.6334    -4.6613     5.5690 C.ar         1    LIG   0.0000
  24 C24          3.6718    -4.0542     6.8200 C.ar         1    LIG   0.0000
  25 C25          4.3893    -4.6581     7.8471 C.ar         1    LIG   0.0000
  26 C26          5.0585    -5.8565     7.6180 C.ar         1    LIG   0.0000
  27 C27          5.0144    -6.4567     6.3638 C.ar         1    LIG   0.0000
  28 C28          4.2995    -5.8590     5.3307 C.ar         1    LIG   0.0000
  29 C29         -0.1643     0.1094     0.2033 C.3          1    LIG   0.0000
  30 C30         -0.0263     1.6207     0.0909 C.3          1    LIG   0.0000
  31 H            1.8399     1.6676    -0.7675 H            1    LIG   0.0000
  32 H            0.9316     3.8347    -0.8258 H            1    LIG   0.0000
  33 H            0.9168     3.8724     0.8067 H            1    LIG   0.0000
  34 H            2.3383     3.8432     0.0036 H            1    LIG   0.0000
  35 H            1.6019     2.0597     2.0537 H            1    LIG   0.0000
  36 H            3.0151     1.9810     1.2393 H            1    LIG   0.0000
  37 H            2.7527    -0.2575     0.8140 H            1    LIG   0.0000
  38 H            2.3653    -0.0760     2.3900 H            1    LIG   0.0000
  39 H           -3.4616    -1.8166     1.8556 H            1    LIG   0.0000
  40 H           -5.6452    -2.6652     1.3518 H            1    LIG   0.0000
  41 H           -6.0244    -5.0231     1.2893 H            1    LIG   0.0000
  42 H           -4.2339    -6.5420     1.7276 H            1    LIG   0.0000
  43 H           -2.0475    -5.7014     2.2344 H            1    LIG   0.0000
  44 H           -0.4618    -5.7524     4.0144 H            1    LIG   0.0000
  45 H           -1.9224    -5.0433     4.1897 H            1    LIG   0.0000
  46 H           -0.8431    -5.2809     6.3033 H            1    LIG   0.0000
  47 H           -1.0949    -3.7077     5.9448 H            1    LIG   0.0000
  48 H            0.9974    -3.5024     6.5810 H            1    LIG   0.0000
  49 H            1.3448    -5.0670     6.2679 H            1    LIG   0.0000
  50 H            3.3574    -3.7661     3.6517 H            1    LIG   0.0000
  51 H            3.1889    -3.1931     6.9791 H            1    LIG   0.0000
  52 H            4.4244    -4.2309     8.7506 H            1    LIG   0.0000
  53 H            5.5735    -6.2883     8.3585 H            1    LIG   0.0000
  54 H            5.4967    -7.3182     6.2048 H            1    LIG   0.0000
  55 H            4.2649    -6.2856     4.4270 H            1    LIG   0.0000
  56 H           -1.1003    -0.1107     0.4781 H            1    LIG   0.0000
  57 H            0.0262    -0.3004    -0.6887 H            1    LIG   0.0000
  58 H           -0.4877     1.9253    -0.7423 H            1    LIG   0.0000
  59 H           -0.4605     2.0439     0.8862 H            1    LIG   0.0000
@<TRIPOS>BOND
   1        1        2 1
   2        2        3 1
   3        3        4 1
   4        4        5 1
   5        5        6 1
   6        6        7 ar
   7        7        8 ar
   8        8        9 ar
   9        9       10 ar
  10       10       11 1
  11       11       12 ar
  12       12       13 ar
  13       13       14 ar
  14       14       15 ar
  15       15       16 ar
  16       16       11 ar
  17       10       17 ar
  18       17        6 ar
  19        9       18 1
  20       18       19 1
  21       19       20 1
  22       20       21 1
  23       21        8 1
  24       21       22 2
  25       22       23 1
  26       23       24 ar
  27       24       25 ar
  28       25       26 ar
  29       26       27 ar
  30       27       28 ar
  31       28       23 ar
  32        5       29 1
  33       29       30 1
  34       30        2 1
  35        2       31 1
  36        1       32 1
  37        1       33 1
  38        1       34 1
  39        3       35 1
  40        3       36 1
  41        4       37 1
  42        4       38 1
  43       12       39 1
  44       13       40 1
  45       14       41 1
  46       15       42 1
  47       16       43 1
  48       18       44 1
  49       18       45 1
  50       19       46 1
  51       19       47 1
  52       20       48 1
  53       20       49 1
  54       22       50 1
  55       24       51 1
  56       25       52 1
  57       26       53 1
  58       27       54 1
  59       28       55 1
  60       29       56 1
  61       29       57 1
  62       30       58 1
  63       30       59 1

@<TRIPOS>MOLECULE

  59   63
SMALL
USER_CHARGES
@<TRIPOS>ATOM
   1 C1           1.3931     3.5168     0.0025 C.3          1    LIG   0.0000
   2 N2           1.3820     2.0474     0.0363 N.4          1    LIG   1.0000
   3 C3           2.0728     1.6480     1.2735 C.3          1    LIG   0.0000
   4 C4           2.0915     0.1371     1.4521 C.3          1    LIG   0.0000
   5 N5           0.7679    -0.4520     1.1946 N.pl3        1    LIG   0.0000
   6 C6           0.3810    -1.5845     1.9279 C.ar         1    LIG   0.0000
   7 N7           1.1616    -2.1476     2.8659 N.ar         1    LIG   0.0000
   8 C8           0.7766    -3.2160     3.5926 C.ar         1    LIG   0.0000
   9 C9          -0.4814    -3.7563     3.3835 C.ar         1    LIG   0.0000
  10 C10         -1.2653    -3.1888     2.3894 C.ar         1    LIG   0.0000
  11 C11         -2.5893    -3.6951     2.0829 C.ar         1    LIG   0.0000
  12 C12         -3.6256    -2.8027     1.8285 C.ar         1    LIG   0.0000
  13 C13         -4.8924    -3.2971     1.5361 C.ar         1    LIG   0.0000
  14 C14         -5.1125    -4.6706     1.4999 C.ar         1    LIG   0.0000
  15 C15         -4.0703    -5.5558     1.7553 C.ar         1    LIG   0.0000
  16 C16         -2.8003    -5.0697     2.0493 C.ar         1    LIG   0.0000
  17 N17         -0.8225    -2.1298     1.7020 N.ar         1    LIG   0.0000
  18 C18         -0.9348    -4.9105     4.2740 C.3          1    LIG   0.0000
  19 C19         -0.5780    -4.5282     5.7006 C.3          1    LIG   0.0000
  20 C20          0.9032    -4.2423     5.9148 C.3          1    LIG   0.0000
  21 C21          1.5893    -3.8309     4.6204 C.2          1    LIG   0.0000
  22 C22          2.8883    -4.0385     4.4918 C.2          1    LIG   0.0000
  23 C23          3.6334    -4.6613     5.5690 C.ar         1    LIG   0.0000
  24 C24          3.2888    -5.9399     5.9947 C.ar         1    LIG   0.0000
  25 C25          4.0082    -6.5293     7.0289 C.ar         1    LIG   0.0000
  26 C26          5.0600    -5.8410     7.6259 C.ar         1    LIG   0.0000
  27 C27          5.3979    -4.5627     7.1936 C.ar         1    LIG   0.0000
  28 C28          4.6830    -3.9656     6.1602 C.ar         1    LIG   0.0000
  29 C29         -0.1643     0.1094     0.2033 C.3          1    LIG   0.0000
  30 C30         -0.0263     1.6207     0.0909 C.3          1    LIG   0.0000
  31 H            1.8399     1.6676    -0.7675 H            1    LIG   0.0000
  32 H            0.9316     3.8347    -0.8258 H            1    LIG   0.0000
  33 H            0.9168     3.8724     0.8067 H            1    LIG   0.0000
  34 H            2.3383     3.8432     0.0036 H            1    LIG   0.0000
  35 H            1.6019     2.0597     2.0537 H            1    LIG   0.0000
  36 H            3.0151     1.9810     1.2393 H            1    LIG   0.0000
  37 H            2.7527    -0.2575     0.8140 H            1    LIG   0.0000
  38 H            2.3653    -0.0760     2.3900 H            1    LIG   0.0000
  39 H           -3.4616    -1.8166     1.8556 H            1    LIG   0.0000
  40 H           -5.6452    -2.6652     1.3518 H            1    LIG   0.0000
  41 H           -6.0244    -5.0231     1.2893 H            1    LIG   0.0000
  42 H           -4.2339    -6.5420     1.7276 H            1    LIG   0.0000
  43 H           -2.0475    -5.7014     2.2344 H            1    LIG   0.0000
  44 H           -0.4618    -5.7524     4.0144 H            1    LIG   0.0000
  45 H           -1.9224    -5.0433     4.1897 H            1    LIG   0.0000
  46 H           -0.8431    -5.2809     6.3033 H            1    LIG   0.0000
  47 H           -1.0949    -3.7077     5.9448 H            1    LIG   0.0000
  48 H            0.9974    -3.5024     6.5810 H            1    LIG   0.0000
  49 H            1.3448    -5.0670     6.2679 H            1    LIG   0.0000
  50 H            3.3574    -3.7661     3.6517 H            1    LIG   0.0000
  51 H            2.5321    -6.4300     5.5619 H            1    LIG   0.0000
  52 H            3.7695    -7.4480     7.3436 H            1    LIG   0.0000
  53 H            5.5754    -6.2673     8.3693 H            1    LIG   0.0000
  54 H            6.1549    -4.0727     7.6258 H            1    LIG   0.0000
  55 H            4.9210    -3.0466     5.8458 H            1    LIG   0.0000
  56 H           -1.1003    -0.1107     0.4781 H            1    LIG   0.0000
  57 H            0.0262    -0.3004    -0.6887 H            1    LIG   0.0000
  58 H           -0.4877     1.9253    -0.7423 H            1    LIG   0.0000
  59 H           -0.4605     2.0439     0.8862 H            1    LIG   0.0000
@<TRIPOS>BOND
   1        1        2 1
   2        2        3 1
   3        3        4 1
   4        4        5 1
   5        5        6 1
   6        6        7 ar
   7        7        8 ar
   8        8        9 ar
   9        9       10 ar
  10       10       11 1
  11       11       12 ar
  12       12       13 ar
  13       13       14 ar
  14       14       15 ar
  15       15       16 ar
  16       16       11 ar
  17       10       17 ar
  18       17        6 ar
  19        9       18 1
  20       18       19 1
  21       19       20 1
  22       20       21 1
  23       21        8 1
  24       21       22 2
  25       22       23 1
  26       23       24 ar
  27       24       25 ar
  28       25       26 ar
  29       26       27 ar
  30       27       28 ar
  31       28       23 ar
  32        5       29 1
  33       29       30 1
  34       30        2 1
  35        2       31 1
  36        1       32 1
  37        1       33 1
  38        1       34 1
  39        3       35 1
  40        3       36 1
  41        4       37 1
  42        4       38 1
  43       12       39 1
  44       13       40 1
  45       14       41 1
  46       15       42 1
  47       16       43 1
  48       18       44 1
  49       18       45 1
  50       19       46 1
  51       19       47 1
  52       20       48 1
  53       20       49 1
  54       22       50 1
  55       24       51 1
  56       25       52 1
  57       26       53 1
  58       27       54 1
  59       28       55 1
  60       29       56 1
  61       29       57 1
  62       30       58 1
  63       30       59 1

@<TRIPOS>MOLECULE

  59   63
SMALL
USER_CHARGES
@<TRIPOS>ATOM
   1 C1           1.3931     3.5168     0.0025 C.3          1    LIG   0.0000
   2 N2           1.3820     2.0474     0.0363 N.4          1    LIG   1.0000
   3 C3           2.0728     1.6480     1.2735 C.3          1    LIG   0.0000
   4 C4           2.0915     0.1371     1.4521 C.3          1    LIG   0.0000
   5 N5           0.7679    -0.4520     1.1946 N.pl3        1    LIG   0.0000
   6 C6           0.3810    -1.5845     1.9279 C.ar         1    LIG   0.0000
   7 N7          -0.8016    -2.1982     1.7520 N.ar         1    LIG   0.0000
   8 C8          -1.1596    -3.3049     2.4337 C.ar         1    LIG   0.0000
   9 C9          -0.2728    -3.8515     3.3465 C.ar         1    LIG   0.0000
  10 C10          0.9307    -3.1906     3.5452 C.ar         1    LIG   0.0000
  11 C11          1.9166    -3.6740     4.4926 C.ar         1    LIG   0.0000
  12 C12          3.2656    -3.6510     4.1542 C.ar         1    LIG   0.0000
  13 C13          4.2042    -4.1172     5.0687 C.ar         1    LIG   0.0000
  14 C14          3.7903    -4.5997     6.3066 C.ar         1    LIG   0.0000
  15 C15          2.4391    -4.6188     6.6367 C.ar         1    LIG   0.0000
  16 C16          1.4937    -4.1548     5.7276 C.ar         1    LIG   0.0000
  17 N17          1.2242    -2.0941     2.8370 N.ar         1    LIG   0.0000
  18 C18         -0.6583    -5.1527     4.0458 C.3          1    LIG   0.0000
  19 C19         -1.2017    -6.0813     2.9730 C.3          1    LIG   0.0000
  20 C20         -2.3923    -5.5167     2.2080 C.3          1    LIG   0.0000
  21 C21         -2.4184    -3.9958     2.2513 C.2          1    LIG   0.0000
  22 C22         -3.5753    -3.3722     2.1106 C.2          1    LIG   0.0000
  23 C23         -4.7944    -4.1372     1.9320 C.ar         1    LIG   0.0000
  24 C24         -4.9173    -4.9914     0.8411 C.ar         1    LIG   0.0000
  25 C25         -6.0902    -5.7207     0.6771 C.ar         1    LIG   0.0000
  26 C26         -7.1248    -5.5919     1.5989 C.ar         1    LIG   0.0000
  27 C27         -6.9931    -4.7355     2.6871 C.ar         1    LIG   0.0000
  28 C28         -5.8235    -4.0019     2.8581 C.ar         1    LIG   0.0000
  29 C29         -0.1643     0.1094     0.2033 C.3          1    LIG   0.0000
  30 C30         -0.0263     1.6207     0.0909 C.3          1    LIG   0.0000
  31 H            1.8399     1.6676    -0.7675 H            1    LIG   0.0000
  32 H            0.9316     3.8347    -0.8258 H            1    LIG   0.0000
  33 H            0.9168     3.8724     0.8067 H            1    LIG   0.0000
  34 H            2.3383     3.8432     0.0036 H            1    LIG   0.0000
  35 H            1.6019     2.0597     2.0537 H            1    LIG   0.0000
  36 H            3.0151     1.9810     1.2393 H            1    LIG   0.0000
  37 H            2.7527    -0.2575     0.8140 H            1    LIG   0.0000
  38 H            2.3653    -0.0760     2.3900 H            1    LIG   0.0000
  39 H            3.5573    -3.3030     3.2633 H            1    LIG   0.0000
  40 H            5.1768    -4.1058     4.8364 H            1    LIG   0.0000
  41 H            4.4675    -4.9342     6.9620 H            1    LIG   0.0000
  42 H            2.1472    -4.9661     7.5279 H            1    LIG   0.0000
  43 H            0.5210    -4.1669     5.9593 H            1    LIG   0.0000
  44 H           -1.3591    -4.9777     4.7374 H            1    LIG   0.0000
  45 H            0.1444    -5.5610     4.4806 H            1    LIG   0.0000
  46 H           -1.4853    -6.9347     3.4103 H            1    LIG   0.0000
  47 H           -0.4687    -6.2692     2.3193 H            1    LIG   0.0000
  48 H           -2.3350    -5.8129     1.2546 H            1    LIG   0.0000
  49 H           -3.2354    -5.8671     2.6159 H            1    LIG   0.0000
  50 H           -3.6100    -2.3730     2.1273 H            1    LIG   0.0000
  51 H           -4.1705    -5.0802     0.1819 H            1    LIG   0.0000
  52 H           -6.1901    -6.3378    -0.1034 H            1    LIG   0.0000
  53 H           -7.9669    -6.1176     1.4784 H            1    LIG   0.0000
  54 H           -7.7395    -4.6471     3.3467 H            1    LIG   0.0000
  55 H           -5.7236    -3.3841     3.6381 H            1    LIG   0.0000
  56 H           -1.1003    -0.1107     0.4781 H            1    LIG   0.0000
  57 H            0.0262    -0.3004    -0.6887 H            1    LIG   0.0000
  58 H           -0.4877     1.9253    -0.7423 H            1    LIG   0.0000
  59 H           -0.4605     2.0439     0.8862 H            1    LIG   0.0000
@<TRIPOS>BOND
   1        1        2 1
   2        2        3 1
   3        3        4 1
   4        4        5 1
   5        5        6 1
   6        6        7 ar
   7        7        8 ar
   8        8        9 ar
   9        9       10 ar
  10       10       11 1
  11       11       12 ar
  12       12       13 ar
  13       13       14 ar
  14       14       15 ar
  15       15       16 ar
  16       16       11 ar
  17       10       17 ar
  18       17        6 ar
  19        9       18 1
  20       18       19 1
  21       19       20 1
  22       20       21 1
  23       21        8 1
  24       21       22 2
  25       22       23 1
  26       23       24 ar
  27       24       25 ar
  28       25       26 ar
  29       26       27 ar
  30       27       28 ar
  31       28       23 ar
  32        5       29 1
  33       29       30 1
  34       30        2 1
  35        2       31 1
  36        1       32 1
  37        1       33 1
  38        1       34 1
  39        3       35 1
  40        3       36 1
  41        4       37 1
  42        4       38 1
  43       12       39 1
  44       13       40 1
  45       14       41 1
  46       15       42 1
  47       16       43 1
  48       18       44 1
  49       18       45 1
  50       19       46 1
  51       19       47 1
  52       20       48 1
  53       20       49 1
  54       22       50 1
  55       24       51 1
  56       25       52 1
  57       26       53 1
  58       27       54 1
  59       28       55 1
  60       29       56 1
  61       29       57 1
  62       30       58 1
  63       30       59 1

@<TRIPOS>MOLECULE

  59   63
SMALL
USER_CHARGES
@<TRIPOS>ATOM
   1 C1           1.3931     3.5168     0.0025 C.3          1    LIG   0.0000
   2 N2           1.3820     2.0474     0.0363 N.4          1    LIG   1.0000
   3 C3           2.0728     1.6480     1.2735 C.3          1    LIG   0.0000
   4 C4           2.0915     0.1371     1.4521 C.3          1    LIG   0.0000
   5 N5           0.7679    -0.4520     1.1946 N.pl3        1    LIG   0.0000
   6 C6           0.3810    -1.5845     1.9279 C.ar         1    LIG   0.0000
   7 N7          -0.8016    -2.1982     1.7520 N.ar         1    LIG   0.0000
   8 C8          -1.1596    -3.3049     2.4337 C.ar         1    LIG   0.0000
   9 C9          -0.2728    -3.8515     3.3465 C.ar         1    LIG   0.0000
  10 C10          0.9307    -3.1906     3.5452 C.ar         1    LIG   0.0000
  11 C11          1.9166    -3.6740     4.4926 C.ar         1    LIG   0.0000
  12 C12          3.2656    -3.6510     4.1542 C.ar         1    LIG   0.0000
  13 C13          4.2042    -4.1172     5.0687 C.ar         1    LIG   0.0000
  14 C14          3.7903    -4.5997     6.3066 C.ar         1    LIG   0.0000
  15 C15          2.4391    -4.6188     6.6367 C.ar         1    LIG   0.0000
  16 C16          1.4937    -4.1548     5.7276 C.ar         1    LIG   0.0000
  17 N17          1.2242    -2.0941     2.8370 N.ar         1    LIG   0.0000
  18 C18         -0.6583    -5.1527     4.0458 C.3          1    LIG   0.0000
  19 C19         -1.2017    -6.0813     2.9730 C.3          1    LIG   0.0000
  20 C20         -2.3923    -5.5167     2.2080 C.3          1    LIG   0.0000
  21 C21         -2.4184    -3.9958     2.2513 C.2          1    LIG   0.0000
  22 C22         -3.5753    -3.3722     2.1106 C.2          1    LIG   0.0000
  23 C23         -4.7944    -4.1372     1.9320 C.ar         1    LIG   0.0000
  24 C24         -5.1935    -5.0357     2.9160 C.ar         1    LIG   0.0000
  25 C25         -6.3637    -5.7657     2.7361 C.ar         1    LIG   0.0000
  26 C26         -7.1214    -5.5932     1.5817 C.ar         1    LIG   0.0000
  27 C27         -6.7149    -4.6923     0.6029 C.ar         1    LIG   0.0000
  28 C28         -5.5453    -3.9586     0.7747 C.ar         1    LIG   0.0000
  29 C29         -0.1643     0.1094     0.2033 C.3          1    LIG   0.0000
  30 C30         -0.0263     1.6207     0.0909 C.3          1    LIG   0.0000
  31 H            1.8399     1.6676    -0.7675 H            1    LIG   0.0000
  32 H            0.9316     3.8347    -0.8258 H            1    LIG   0.0000
  33 H            0.9168     3.8724     0.8067 H            1    LIG   0.0000
  34 H            2.3383     3.8432     0.0036 H            1    LIG   0.0000
  35 H            1.6019     2.0597     2.0537 H            1    LIG   0.0000
  36 H            3.0151     1.9810     1.2393 H            1    LIG   0.0000
  37 H            2.7527    -0.2575     0.8140 H            1    LIG   0.0000
  38 H            2.3653    -0.0760     2.3900 H            1    LIG   0.0000
  39 H            3.5573    -3.3030     3.2633 H            1    LIG   0.0000
  40 H            5.1768    -4.1058     4.8364 H            1    LIG   0.0000
  41 H            4.4675    -4.9342     6.9620 H            1    LIG   0.0000
  42 H            2.1472    -4.9661     7.5279 H            1    LIG   0.0000
  43 H            0.5210    -4.1669     5.9593 H            1    LIG   0.0000
  44 H           -1.3591    -4.9777     4.7374 H            1    LIG   0.0000
  45 H            0.1444    -5.5610     4.4806 H            1    LIG   0.0000
  46 H           -1.4853    -6.9347     3.4103 H            1    LIG   0.0000
  47 H           -0.4687    -6.2692     2.3193 H            1    LIG   0.0000
  48 H           -2.3350    -5.8129     1.2546 H            1    LIG   0.0000
  49 H           -3.2354    -5.8671     2.6159 H            1    LIG   0.0000
  50 H           -3.6100    -2.3730     2.1273 H            1    LIG   0.0000
  51 H           -4.6452    -5.1554     3.7436 H            1    LIG   0.0000
  52 H           -6.6606    -6.4148     3.4365 H            1    LIG   0.0000
  53 H           -7.9623    -6.1195     1.4552 H            1    LIG   0.0000
  54 H           -7.2634    -4.5719    -0.2245 H            1    LIG   0.0000
  55 H           -5.2479    -3.3100     0.0741 H            1    LIG   0.0000
  56 H           -1.1003    -0.1107     0.4781 H            1    LIG   0.0000
  57 H            0.0262    -0.3004    -0.6887 H            1    LIG   0.0000
  58 H           -0.4877     1.9253    -0.7423 H            1    LIG   0.0000
  59 H           -0.4605     2.0439     0.8862 H            1    LIG   0.0000
@<TRIPOS>BOND
   1        1        2 1
   2        2        3 1
   3        3        4 1
   4        4        5 1
   5        5        6 1
   6        6        7 ar
   7        7        8 ar
   8        8        9 ar
   9        9       10 ar
  10       10       11 1
  11       11       12 ar
  12       12       13 ar
  13       13       14 ar
  14       14       15 ar
  15       15       16 ar
  16       16       11 ar
  17       10       17 ar
  18       17        6 ar
  19        9       18 1
  20       18       19 1
  21       19       20 1
  22       20       21 1
  23       21        8 1
  24       21       22 2
  25       22       23 1
  26       23       24 ar
  27       24       25 ar
  28       25       26 ar
  29       26       27 ar
  30       27       28 ar
  31       28       23 ar
  32        5       29 1
  33       29       30 1
  34       30        2 1
  35        2       31 1
  36        1       32 1
  37        1       33 1
  38        1       34 1
  39        3       35 1
  40        3       36 1
  41        4       37 1
  42        4       38 1
  43       12       39 1
  44       13       40 1
  45       14       41 1
  46       15       42 1
  47       16       43 1
  48       18       44 1
  49       18       45 1
  50       19       46 1
  51       19       47 1
  52       20       48 1
  53       20       49 1
  54       22       50 1
  55       24       51 1
  56       25       52 1
  57       26       53 1
  58       27       54 1
  59       28       55 1
  60       29       56 1
  61       29       57 1
  62       30       58 1
  63       30       59 1

@<TRIPOS>MOLECULE

  59   63
SMALL
USER_CHARGES
@<TRIPOS>ATOM
   1 C1          -0.7206     1.9999    -1.1897 C.3          1    LIG   0.0000
   2 N2           0.0355     1.4784    -0.0420 N.4          1    LIG   1.0000
   3 C3           1.4050     2.0065    -0.1569 C.3          1    LIG   0.0000
   4 C4           2.3143     1.4839     0.9455 C.3          1    LIG   0.0000
   5 N5           2.1479     0.0346     1.1410 N.pl3        1    LIG   0.0000
   6 C6           3.2641    -0.7220     1.5365 C.ar         1    LIG   0.0000
   7 N7           3.1985    -2.0541     1.7281 N.ar         1    LIG   0.0000
   8 C8           4.2450    -2.8235     2.0898 C.ar         1    LIG   0.0000
   9 C9           5.4726    -2.1807     2.2450 C.ar         1    LIG   0.0000
  10 C10          5.5557    -0.8005     2.0784 C.ar         1    LIG   0.0000
  11 C11          6.7896    -0.0573     2.2477 C.ar         1    LIG   0.0000
  12 C12          6.7627     1.1904     2.8621 C.ar         1    LIG   0.0000
  13 C13          7.9506     1.8965     3.0197 C.ar         1    LIG   0.0000
  14 C14          9.1488     1.3538     2.5654 C.ar         1    LIG   0.0000
  15 C15          9.1663     0.1052     1.9523 C.ar         1    LIG   0.0000
  16 C16          7.9825    -0.6074     1.7901 C.ar         1    LIG   0.0000
  17 N17          4.4510    -0.1170     1.7274 N.ar         1    LIG   0.0000
  18 C18          6.7197    -2.9926     2.5923 C.3          1    LIG   0.0000
  19 C19          6.4309    -4.3089     3.2933 C.3          1    LIG   0.0000
  20 C20          5.4133    -5.0798     2.4661 C.3          1    LIG   0.0000
  21 C21          4.1460    -4.2499     2.3100 C.2          1    LIG   0.0000
  22 C22          2.9819    -4.8603     2.4080 C.2          1    LIG   0.0000
  23 C23          2.9305    -6.2927     2.6289 C.ar         1    LIG   0.0000
  24 C24          3.5067    -7.1534     1.7003 C.ar         1    LIG   0.0000
  25 C25          3.4521    -8.5258     1.9198 C.ar         1    LIG   0.0000
  26 C26          2.8265    -9.0245     3.0584 C.ar         1    LIG   0.0000
  27 C27          2.2532    -8.1564     3.9819 C.ar         1    LIG   0.0000
  28 C28          2.3028    -6.7823     3.7696 C.ar         1    LIG   0.0000
  29 C29          0.8651    -0.6536     0.9270 C.3          1    LIG   0.0000
  30 C30          0.0481     0.0122    -0.1705 C.3          1    LIG   0.0000
  31 H           -0.3851     1.7585     0.8209 H            1    LIG   0.0000
  32 H           -1.6614     1.6633    -1.1498 H            1    LIG   0.0000
  33 H           -0.7227     2.9994    -1.1611 H            1    LIG   0.0000
  34 H           -0.2920     1.6916    -2.0390 H            1    LIG   0.0000
  35 H            1.3716     3.0043    -0.1013 H            1    LIG   0.0000
  36 H            1.7823     1.7344    -1.0421 H            1    LIG   0.0000
  37 H            3.2650     1.6713     0.6985 H            1    LIG   0.0000
  38 H            2.0928     1.9545     1.7996 H            1    LIG   0.0000
  39 H            5.8989     1.5755     3.1869 H            1    LIG   0.0000
  40 H            7.9437     2.7945     3.4596 H            1    LIG   0.0000
  41 H           10.0013     1.8638     2.6801 H            1    LIG   0.0000
  42 H           10.0302    -0.2803     1.6281 H            1    LIG   0.0000
  43 H            7.9891    -1.5051     1.3495 H            1    LIG   0.0000
  44 H            7.2978    -2.4386     3.1913 H            1    LIG   0.0000
  45 H            7.2113    -3.1903     1.7442 H            1    LIG   0.0000
  46 H            6.0605    -4.1318     4.2051 H            1    LIG   0.0000
  47 H            7.2738    -4.8409     3.3734 H            1    LIG   0.0000
  48 H            5.7971    -5.2740     1.5633 H            1    LIG   0.0000
  49 H            5.1932    -5.9397     2.9266 H            1    LIG   0.0000
  50 H            2.1342    -4.3357     2.3300 H            1    LIG   0.0000
  51 H            3.9552    -6.7895     0.8840 H            1    LIG   0.0000
  52 H            3.8626    -9.1543     1.2592 H            1    LIG   0.0000
  53 H            2.7889   -10.0117     3.2135 H            1    LIG   0.0000
  54 H            1.8053    -8.5201     4.7986 H            1    LIG   0.0000
  55 H            1.8917    -6.1536     4.4297 H            1    LIG   0.0000
  56 H            0.3408    -0.6349     1.7784 H            1    LIG   0.0000
  57 H            1.0452    -1.6023     0.6673 H            1    LIG   0.0000
  58 H            0.4420    -0.2300    -1.0572 H            1    LIG   0.0000
  59 H           -0.8925    -0.3236    -0.1207 H            1    LIG   0.0000
@<TRIPOS>BOND
   1        1        2 1
   2        2        3 1
   3        3        4 1
   4        4        5 1
   5        5        6 1
   6        6        7 ar
   7        7        8 ar
   8        8        9 ar
   9        9       10 ar
  10       10       11 1
  11       11       12 ar
  12       12       13 ar
  13       13       14 ar
  14       14       15 ar
  15       15       16 ar
  16       16       11 ar
  17       10       17 ar
  18       17        6 ar
  19        9       18 1
  20       18       19 1
  21       19       20 1
  22       20       21 1
  23       21        8 1
  24       21       22 2
  25       22       23 1
  26       23       24 ar
  27       24       25 ar
  28       25       26 ar
  29       26       27 ar
  30       27       28 ar
  31       28       23 ar
  32        5       29 1
  33       29       30 1
  34       30        2 1
  35        2       31 1
  36        1       32 1
  37        1       33 1
  38        1       34 1
  39        3       35 1
  40        3       36 1
  41        4       37 1
  42        4       38 1
  43       12       39 1
  44       13       40 1
  45       14       41 1
  46       15       42 1
  47       16       43 1
  48       18       44 1
  49       18       45 1
  50       19       46 1
  51       19       47 1
  52       20       48 1
  53       20       49 1
  54       22       50 1
  55       24       51 1
  56       25       52 1
  57       26       53 1
  58       27       54 1
  59       28       55 1
  60       29       56 1
  61       29       57 1
  62       30       58 1
  63       30       59 1

@<TRIPOS>MOLECULE

  59   63
SMALL
USER_CHARGES
@<TRIPOS>ATOM
   1 C1          -0.7206     1.9999    -1.1897 C.3          1    LIG   0.0000
   2 N2           0.0355     1.4784    -0.0420 N.4          1    LIG   1.0000
   3 C3           1.4050     2.0065    -0.1569 C.3          1    LIG   0.0000
   4 C4           2.3143     1.4839     0.9455 C.3          1    LIG   0.0000
   5 N5           2.1479     0.0346     1.1410 N.pl3        1    LIG   0.0000
   6 C6           3.2629    -0.7211     1.5361 C.ar         1    LIG   0.0000
   7 N7           4.4418    -0.1046     1.7185 N.ar         1    LIG   0.0000
   8 C8           5.5557    -0.7607     2.0843 C.ar         1    LIG   0.0000
   9 C9           5.4671    -2.1396     2.2463 C.ar         1    LIG   0.0000
  10 C10          4.2419    -2.7752     2.0830 C.ar         1    LIG   0.0000
  11 C11          4.0649    -4.2046     2.2522 C.ar         1    LIG   0.0000
  12 C12          2.9127    -4.6879     2.8635 C.ar         1    LIG   0.0000
  13 C13          2.7516    -6.0603     3.0223 C.ar         1    LIG   0.0000
  14 C14          3.7367    -6.9338     2.5715 C.ar         1    LIG   0.0000
  15 C15          4.8856    -6.4417     1.9610 C.ar         1    LIG   0.0000
  16 C16          5.0550    -5.0703     1.7989 C.ar         1    LIG   0.0000
  17 N17          3.1814    -2.0477     1.7323 N.ar         1    LIG   0.0000
  18 C18          6.7121    -2.9529     2.5830 C.3          1    LIG   0.0000
  19 C19          7.7600    -2.1197     3.3009 C.3          1    LIG   0.0000
  20 C20          8.0823    -0.9291     2.4086 C.3          1    LIG   0.0000
  21 C21          6.8314    -0.0806     2.2759 C.2          1    LIG   0.0000
  22 C22          6.9406     1.2309     2.3503 C.2          1    LIG   0.0000
  23 C23          8.2425     1.8405     2.5419 C.ar         1    LIG   0.0000
  24 C24          8.9856     1.5341     3.6772 C.ar         1    LIG   0.0000
  25 C25         10.2329     2.1239     3.8532 C.ar         1    LIG   0.0000
  26 C26         10.7252     3.0095     2.8993 C.ar         1    LIG   0.0000
  27 C27          9.9753     3.3100     1.7669 C.ar         1    LIG   0.0000
  28 C28          8.7264     2.7249     1.5834 C.ar         1    LIG   0.0000
  29 C29          0.8651    -0.6536     0.9270 C.3          1    LIG   0.0000
  30 C30          0.0481     0.0122    -0.1705 C.3          1    LIG   0.0000
  31 H           -0.3851     1.7585     0.8209 H            1    LIG   0.0000
  32 H           -1.6614     1.6633    -1.1498 H            1    LIG   0.0000
  33 H           -0.7227     2.9994    -1.1611 H            1    LIG   0.0000
  34 H           -0.2920     1.6916    -2.0390 H            1    LIG   0.0000
  35 H            1.3716     3.0043    -0.1013 H            1    LIG   0.0000
  36 H            1.7823     1.7344    -1.0421 H            1    LIG   0.0000
  37 H            3.2650     1.6713     0.6985 H            1    LIG   0.0000
  38 H            2.0928     1.9545     1.7996 H            1    LIG   0.0000
  39 H            2.2080    -4.0557     3.1853 H            1    LIG   0.0000
  40 H            1.9276    -6.4195     3.4605 H            1    LIG   0.0000
  41 H            3.6180    -7.9200     2.6870 H            1    LIG   0.0000
  42 H            5.5902    -7.0739     1.6385 H            1    LIG   0.0000
  43 H            5.8792    -4.7109     1.3614 H            1    LIG   0.0000
  44 H            7.1063    -3.3059     1.7345 H            1    LIG   0.0000
  45 H            6.4488    -3.7173     3.1716 H            1    LIG   0.0000
  46 H            8.5840    -2.6649     3.4547 H            1    LIG   0.0000
  47 H            7.4018    -1.8021     4.1789 H            1    LIG   0.0000
  48 H            8.8161    -0.3877     2.8190 H            1    LIG   0.0000
  49 H            8.3699    -1.2507     1.5065 H            1    LIG   0.0000
  50 H            6.1257     1.8055     2.2746 H            1    LIG   0.0000
  51 H            8.6270     0.8967     4.3592 H            1    LIG   0.0000
  52 H           10.7761     1.9114     4.6655 H            1    LIG   0.0000
  53 H           11.6223     3.4319     3.0286 H            1    LIG   0.0000
  54 H           10.3341     3.9467     1.0844 H            1    LIG   0.0000
  55 H            8.1828     2.9378     0.7716 H            1    LIG   0.0000
  56 H            0.3408    -0.6349     1.7784 H            1    LIG   0.0000
  57 H            1.0452    -1.6023     0.6673 H            1    LIG   0.0000
  58 H            0.4420    -0.2300    -1.0572 H            1    LIG   0.0000
  59 H           -0.8925    -0.3236    -0.1207 H            1    LIG   0.0000
@<TRIPOS>BOND
   1        1        2 1
   2        2        3 1
   3        3        4 1
   4        4        5 1
   5        5        6 1
   6        6        7 ar
   7        7        8 ar
   8        8        9 ar
   9        9       10 ar
  10       10       11 1
  11       11       12 ar
  12       12       13 ar
  13       13       14 ar
  14       14       15 ar
  15       15       16 ar
  16       16       11 ar
  17       10       17 ar
  18       17        6 ar
  19        9       18 1
  20       18       19 1
  21       19       20 1
  22       20       21 1
  23       21        8 1
  24       21       22 2
  25       22       23 1
  26       23       24 ar
  27       24       25 ar
  28       25       26 ar
  29       26       27 ar
  30       27       28 ar
  31       28       23 ar
  32        5       29 1
  33       29       30 1
  34       30        2 1
  35        2       31 1
  36        1       32 1
  37        1       33 1
  38        1       34 1
  39        3       35 1
  40        3       36 1
  41        4       37 1
  42        4       38 1
  43       12       39 1
  44       13       40 1
  45       14       41 1
  46       15       42 1
  47       16       43 1
  48       18       44 1
  49       18       45 1
  50       19       46 1
  51       19       47 1
  52       20       48 1
  53       20       49 1
  54       22       50 1
  55       24       51 1
  56       25       52 1
  57       26       53 1
  58       27       54 1
  59       28       55 1
  60       29       56 1
  61       29       57 1
  62       30       58 1
  63       30       59 1

@<TRIPOS>MOLECULE

  59   63
SMALL
USER_CHARGES
@<TRIPOS>ATOM
   1 C1          -0.7206     1.9999    -1.1897 C.3          1    LIG   0.0000
   2 N2           0.0355     1.4784    -0.0420 N.4          1    LIG   1.0000
   3 C3           1.4050     2.0065    -0.1569 C.3          1    LIG   0.0000
   4 C4           2.3143     1.4839     0.9455 C.3          1    LIG   0.0000
   5 N5           2.1479     0.0346     1.1410 N.pl3        1    LIG   0.0000
   6 C6           3.2629    -0.7211     1.5361 C.ar         1    LIG   0.0000
   7 N7           4.4418    -0.1046     1.7185 N.ar         1    LIG   0.0000
   8 C8           5.5557    -0.7607     2.0843 C.ar         1    LIG   0.0000
   9 C9           5.4671    -2.1396     2.2463 C.ar         1    LIG   0.0000
  10 C10          4.2419    -2.7752     2.0830 C.ar         1    LIG   0.0000
  11 C11          4.0649    -4.2046     2.2522 C.ar         1    LIG   0.0000
  12 C12          2.9127    -4.6879     2.8635 C.ar         1    LIG   0.0000
  13 C13          2.7516    -6.0603     3.0223 C.ar         1    LIG   0.0000
  14 C14          3.7367    -6.9338     2.5715 C.ar         1    LIG   0.0000
  15 C15          4.8856    -6.4417     1.9610 C.ar         1    LIG   0.0000
  16 C16          5.0550    -5.0703     1.7989 C.ar         1    LIG   0.0000
  17 N17          3.1814    -2.0477     1.7323 N.ar         1    LIG   0.0000
  18 C18          6.7121    -2.9529     2.5830 C.3          1    LIG   0.0000
  19 C19          7.7600    -2.1197     3.3009 C.3          1    LIG   0.0000
  20 C20          8.0823    -0.9291     2.4086 C.3          1    LIG   0.0000
  21 C21          6.8314    -0.0806     2.2759 C.2          1    LIG   0.0000
  22 C22          6.9406     1.2309     2.3503 C.2          1    LIG   0.0000
  23 C23          8.2425     1.8405     2.5419 C.ar         1    LIG   0.0000
  24 C24          9.2460     1.6301     1.6019 C.ar         1    LIG   0.0000
  25 C25         10.4918     2.2180     1.7940 C.ar         1    LIG   0.0000
  26 C26         10.7238     3.0069     2.9166 C.ar         1    LIG   0.0000
  27 C27          9.7143     3.2122     3.8514 C.ar         1    LIG   0.0000
  28 C28          8.4655     2.6273     3.6672 C.ar         1    LIG   0.0000
  29 C29          0.8651    -0.6536     0.9270 C.3          1    LIG   0.0000
  30 C30          0.0481     0.0122    -0.1705 C.3          1    LIG   0.0000
  31 H           -0.3851     1.7585     0.8209 H            1    LIG   0.0000
  32 H           -1.6614     1.6633    -1.1498 H            1    LIG   0.0000
  33 H           -0.7227     2.9994    -1.1611 H            1    LIG   0.0000
  34 H           -0.2920     1.6916    -2.0390 H            1    LIG   0.0000
  35 H            1.3716     3.0043    -0.1013 H            1    LIG   0.0000
  36 H            1.7823     1.7344    -1.0421 H            1    LIG   0.0000
  37 H            3.2650     1.6713     0.6985 H            1    LIG   0.0000
  38 H            2.0928     1.9545     1.7996 H            1    LIG   0.0000
  39 H            2.2080    -4.0557     3.1853 H            1    LIG   0.0000
  40 H            1.9276    -6.4195     3.4605 H            1    LIG   0.0000
  41 H            3.6180    -7.9200     2.6870 H            1    LIG   0.0000
  42 H            5.5902    -7.0739     1.6385 H            1    LIG   0.0000
  43 H            5.8792    -4.7109     1.3614 H            1    LIG   0.0000
  44 H            7.1063    -3.3059     1.7345 H            1    LIG   0.0000
  45 H            6.4488    -3.7173     3.1716 H            1    LIG   0.0000
  46 H            8.5840    -2.6649     3.4547 H            1    LIG   0.0000
  47 H            7.4018    -1.8021     4.1789 H            1    LIG   0.0000
  48 H            8.8161    -0.3877     2.8190 H            1    LIG   0.0000
  49 H            8.3699    -1.2507     1.5065 H            1    LIG   0.0000
  50 H            6.1257     1.8055     2.2746 H            1    LIG   0.0000
  51 H            9.0737     1.0624     0.7969 H            1    LIG   0.0000
  52 H           11.2211     2.0736     1.1252 H            1    LIG   0.0000
  53 H           11.6206     3.4283     3.0520 H            1    LIG   0.0000
  54 H            9.8863     3.7804     4.6561 H            1    LIG   0.0000
  55 H            7.7363     2.7708     4.3363 H            1    LIG   0.0000
  56 H            0.3408    -0.6349     1.7784 H            1    LIG   0.0000
  57 H            1.0452    -1.6023     0.6673 H            1    LIG   0.0000
  58 H            0.4420    -0.2300    -1.0572 H            1    LIG   0.0000
  59 H           -0.8925    -0.3236    -0.1207 H            1    LIG   0.0000
@<TRIPOS>BOND
   1        1        2 1
   2        2        3 1
   3        3        4 1
   4        4        5 1
   5        5        6 1
   6        6        7 ar
   7        7        8 ar
   8        8        9 ar
   9        9       10 ar
  10       10       11 1
  11       11       12 ar
  12       12       13 ar
  13       13       14 ar
  14       14       15 ar
  15       15       16 ar
  16       16       11 ar
  17       10       17 ar
  18       17        6 ar
  19        9       18 1
  20       18       19 1
  21       19       20 1
  22       20       21 1
  23       21        8 1
  24       21       22 2
  25       22       23 1
  26       23       24 ar
  27       24       25 ar
  28       25       26 ar
  29       26       27 ar
  30       27       28 ar
  31       28       23 ar
  32        5       29 1
  33       29       30 1
  34       30        2 1
  35        2       31 1
  36        1       32 1
  37        1       33 1
  38        1       34 1
  39        3       35 1
  40        3       36 1
  41        4       37 1
  42        4       38 1
  43       12       39 1
  44       13       40 1
  45       14       41 1
  46       15       42 1
  47       16       43 1
  48       18       44 1
  49       18       45 1
  50       19       46 1
  51       19       47 1
  52       20       48 1
  53       20       49 1
  54       22       50 1
  55       24       51 1
  56       25       52 1
  57       26       53 1
  58       27       54 1
  59       28       55 1
  60       29       56 1
  61       29       57 1
  62       30       58 1
  63       30       59 1

@<TRIPOS>MOLECULE

  59   63
SMALL
USER_CHARGES
@<TRIPOS>ATOM
   1 C1           1.3710     3.5027     0.0419 C.3          1    LIG   0.0000
   2 N2           1.0948     2.1529     0.5523 N.4          1    LIG   1.0000
   3 C3           0.2931     1.3783    -0.4069 C.3          1    LIG   0.0000
   4 C4          -0.1987     0.0857     0.2238 C.3          1    LIG   0.0000
   5 N5           0.6691    -0.2362     1.3699 N.pl3        1    LIG   0.0000
   6 C6           0.0860    -0.9269     2.4438 C.ar         1    LIG   0.0000
   7 N7           0.8419    -1.2444     3.5073 N.ar         1    LIG   0.0000
   8 C8           0.3596    -1.9142     4.5674 C.ar         1    LIG   0.0000
   9 C9          -0.9732    -2.3109     4.5266 C.ar         1    LIG   0.0000
  10 C10         -1.7633    -1.9604     3.4381 C.ar         1    LIG   0.0000
  11 C11         -3.1641    -2.3205     3.3304 C.ar         1    LIG   0.0000
  12 C12         -4.0690    -1.4113     2.7926 C.ar         1    LIG   0.0000
  13 C13         -5.4106    -1.7647     2.6937 C.ar         1    LIG   0.0000
  14 C14         -5.8350    -3.0161     3.1301 C.ar         1    LIG   0.0000
  15 C15         -4.9230    -3.9192     3.6664 C.ar         1    LIG   0.0000
  16 C16         -3.5793    -3.5734     3.7695 C.ar         1    LIG   0.0000
  17 N17         -1.2096    -1.2825     2.4328 N.ar         1    LIG   0.0000
  18 C18         -1.5601    -3.1424     5.6619 C.3          1    LIG   0.0000
  19 C19         -0.8216    -2.9211     6.9708 C.3          1    LIG   0.0000
  20 C20          0.6448    -3.2481     6.7252 C.3          1    LIG   0.0000
  21 C21          1.1915    -2.2566     5.7152 C.2          1    LIG   0.0000
  22 C22          2.3851    -1.7349     5.9166 C.2          1    LIG   0.0000
  23 C23          3.1584    -2.1214     7.0810 C.ar         1    LIG   0.0000
  24 C24          3.5128    -3.4545     7.2603 C.ar         1    LIG   0.0000
  25 C25          4.2539    -3.8164     8.3803 C.ar         1    LIG   0.0000
  26 C26          4.6330    -2.8496     9.3066 C.ar         1    LIG   0.0000
  27 C27          4.2744    -1.5187     9.1191 C.ar         1    LIG   0.0000
  28 C28          3.5326    -1.1483     8.0019 C.ar         1    LIG   0.0000
  29 C29          2.0883     0.1410     1.4832 C.3          1    LIG   0.0000
  30 C30          2.3705     1.4521     0.7626 C.3          1    LIG   0.0000
  31 H            0.6036     2.2189     1.4208 H            1    LIG   0.0000
  32 H            1.9162     4.0072     0.7114 H            1    LIG   0.0000
  33 H            1.8769     3.4368    -0.8182 H            1    LIG   0.0000
  34 H            0.5080     3.9829    -0.1150 H            1    LIG   0.0000
  35 H            0.8555     1.1610    -1.2048 H            1    LIG   0.0000
  36 H           -0.4944     1.9243    -0.6929 H            1    LIG   0.0000
  37 H           -1.1415     0.2006     0.5365 H            1    LIG   0.0000
  38 H           -0.1581    -0.6540    -0.4480 H            1    LIG   0.0000
  39 H           -3.7585    -0.5135     2.4804 H            1    LIG   0.0000
  40 H           -6.0705    -1.1193     2.3090 H            1    LIG   0.0000
  41 H           -6.8002    -3.2674     3.0577 H            1    LIG   0.0000
  42 H           -5.2333    -4.8174     3.9780 H            1    LIG   0.0000
  43 H           -2.9194    -4.2184     4.1549 H            1    LIG   0.0000
  44 H           -1.5006    -4.1102     5.4174 H            1    LIG   0.0000
  45 H           -2.5194    -2.8882     5.7856 H            1    LIG   0.0000
  46 H           -1.1923    -3.5224     7.6786 H            1    LIG   0.0000
  47 H           -0.9159    -1.9684     7.2599 H            1    LIG   0.0000
  48 H            1.1557    -3.1747     7.5818 H            1    LIG   0.0000
  49 H            0.7284    -4.1776     6.3660 H            1    LIG   0.0000
  50 H            2.7574    -1.0725     5.2665 H            1    LIG   0.0000
  51 H            3.2378    -4.1451     6.5913 H            1    LIG   0.0000
  52 H            4.5143    -4.7718     8.5200 H            1    LIG   0.0000
  53 H            5.1658    -3.1128    10.1108 H            1    LIG   0.0000
  54 H            4.5499    -0.8279     9.7877 H            1    LIG   0.0000
  55 H            3.2714    -0.1931     7.8624 H            1    LIG   0.0000
  56 H            2.6506    -0.5805     1.0791 H            1    LIG   0.0000
  57 H            2.3221     0.2436     2.4500 H            1    LIG   0.0000
  58 H            2.9788     2.0185     1.3186 H            1    LIG   0.0000
  59 H            2.8025     1.2659    -0.1199 H            1    LIG   0.0000
@<TRIPOS>BOND
   1        1        2 1
   2        2        3 1
   3        3        4 1
   4        4        5 1
   5        5        6 1
   6        6        7 ar
   7        7        8 ar
   8        8        9 ar
   9        9       10 ar
  10       10       11 1
  11       11       12 ar
  12       12       13 ar
  13       13       14 ar
  14       14       15 ar
  15       15       16 ar
  16       16       11 ar
  17       10       17 ar
  18       17        6 ar
  19        9       18 1
  20       18       19 1
  21       19       20 1
  22       20       21 1
  23       21        8 1
  24       21       22 2
  25       22       23 1
  26       23       24 ar
  27       24       25 ar
  28       25       26 ar
  29       26       27 ar
  30       27       28 ar
  31       28       23 ar
  32        5       29 1
  33       29       30 1
  34       30        2 1
  35        2       31 1
  36        1       32 1
  37        1       33 1
  38        1       34 1
  39        3       35 1
  40        3       36 1
  41        4       37 1
  42        4       38 1
  43       12       39 1
  44       13       40 1
  45       14       41 1
  46       15       42 1
  47       16       43 1
  48       18       44 1
  49       18       45 1
  50       19       46 1
  51       19       47 1
  52       20       48 1
  53       20       49 1
  54       22       50 1
  55       24       51 1
  56       25       52 1
  57       26       53 1
  58       27       54 1
  59       28       55 1
  60       29       56 1
  61       29       57 1
  62       30       58 1
  63       30       59 1

