@<TRIPOS>MOLECULE
*****
 59 63 0 0 0
SMALL
USER_CHARGES

@<TRIPOS>ATOM
      1 C1         -0.7206    1.9999   -1.1897 C.3     1  LIG1        0.0000
      2 N2          0.0355    1.4784   -0.0420 N.4     1  LIG1        1.0000
      3 C3          1.4050    2.0065   -0.1569 C.3     1  LIG1        0.0000
      4 C4          2.3143    1.4839    0.9455 C.3     1  LIG1        0.0000
      5 N5          2.1479    0.0346    1.1410 N.pl3   1  LIG1        0.0000
      6 C6          3.2629   -0.7211    1.5361 C.ar    1  LIG1        0.0000
      7 N7          4.4418   -0.1046    1.7185 N.ar    1  LIG1        0.0000
      8 C8          5.5557   -0.7607    2.0843 C.ar    1  LIG1        0.0000
      9 C9          5.4671   -2.1396    2.2463 C.ar    1  LIG1        0.0000
     10 C10         4.2419   -2.7752    2.0830 C.ar    1  LIG1        0.0000
     11 C11         4.0649   -4.2046    2.2522 C.ar    1  LIG1        0.0000
     12 C12         2.9127   -4.6879    2.8635 C.ar    1  LIG1        0.0000
     13 C13         2.7516   -6.0603    3.0223 C.ar    1  LIG1        0.0000
     14 C14         3.7367   -6.9338    2.5715 C.ar    1  LIG1        0.0000
     15 C15         4.8856   -6.4417    1.9610 C.ar    1  LIG1        0.0000
     16 C16         5.0550   -5.0703    1.7989 C.ar    1  LIG1        0.0000
     17 N17         3.1814   -2.0477    1.7323 N.ar    1  LIG1        0.0000
     18 C18         6.7121   -2.9529    2.5830 C.3     1  LIG1        0.0000
     19 C19         7.7600   -2.1197    3.3009 C.3     1  LIG1        0.0000
     20 C20         8.0823   -0.9291    2.4086 C.3     1  LIG1        0.0000
     21 C21         6.8314   -0.0806    2.2759 C.2     1  LIG1        0.0000
     22 C22         6.9406    1.2309    2.3503 C.2     1  LIG1        0.0000
     23 C23         8.2425    1.8405    2.5419 C.ar    1  LIG1        0.0000
     24 C24         9.2460    1.6301    1.6019 C.ar    1  LIG1        0.0000
     25 C25        10.4918    2.2180    1.7940 C.ar    1  LIG1        0.0000
     26 C26        10.7238    3.0069    2.9166 C.ar    1  LIG1        0.0000
     27 C27         9.7143    3.2122    3.8514 C.ar    1  LIG1        0.0000
     28 C28         8.4655    2.6273    3.6672 C.ar    1  LIG1        0.0000
     29 C29         0.8651   -0.6536    0.9270 C.3     1  LIG1        0.0000
     30 C30         0.0481    0.0122   -0.1705 C.3     1  LIG1        0.0000
     31 H          -0.3851    1.7585    0.8209 H       1  LIG1        0.0000
     32 H          -1.6614    1.6633   -1.1498 H       1  LIG1        0.0000
     33 H          -0.7227    2.9994   -1.1611 H       1  LIG1        0.0000
     34 H          -0.2920    1.6916   -2.0390 H       1  LIG1        0.0000
     35 H           1.3716    3.0043   -0.1013 H       1  LIG1        0.0000
     36 H           1.7823    1.7344   -1.0421 H       1  LIG1        0.0000
     37 H           3.2650    1.6713    0.6985 H       1  LIG1        0.0000
     38 H           2.0928    1.9545    1.7996 H       1  LIG1        0.0000
     39 H           2.2080   -4.0557    3.1853 H       1  LIG1        0.0000
     40 H           1.9276   -6.4195    3.4605 H       1  LIG1        0.0000
     41 H           3.6180   -7.9200    2.6870 H       1  LIG1        0.0000
     42 H           5.5902   -7.0739    1.6385 H       1  LIG1        0.0000
     43 H           5.8792   -4.7109    1.3614 H       1  LIG1        0.0000
     44 H           7.1063   -3.3059    1.7345 H       1  LIG1        0.0000
     45 H           6.4488   -3.7173    3.1716 H       1  LIG1        0.0000
     46 H           8.5840   -2.6649    3.4547 H       1  LIG1        0.0000
     47 H           7.4018   -1.8021    4.1789 H       1  LIG1        0.0000
     48 H           8.8161   -0.3877    2.8190 H       1  LIG1        0.0000
     49 H           8.3699   -1.2507    1.5065 H       1  LIG1        0.0000
     50 H           6.1257    1.8055    2.2746 H       1  LIG1        0.0000
     51 H           9.0737    1.0624    0.7969 H       1  LIG1        0.0000
     52 H          11.2211    2.0736    1.1252 H       1  LIG1        0.0000
     53 H          11.6206    3.4283    3.0520 H       1  LIG1        0.0000
     54 H           9.8863    3.7804    4.6561 H       1  LIG1        0.0000
     55 H           7.7363    2.7708    4.3363 H       1  LIG1        0.0000
     56 H           0.3408   -0.6349    1.7784 H       1  LIG1        0.0000
     57 H           1.0452   -1.6023    0.6673 H       1  LIG1        0.0000
     58 H           0.4420   -0.2300   -1.0572 H       1  LIG1        0.0000
     59 H          -0.8925   -0.3236   -0.1207 H       1  LIG1        0.0000
@<TRIPOS>UNITY_ATOM_ATTR
2 1
charge 1
@<TRIPOS>BOND
     1     1     2    1
     2     2     3    1
     3     3     4    1
     4     4     5    1
     5     5     6    1
     6     6     7   ar
     7     7     8   ar
     8     8     9   ar
     9     9    10   ar
    10    10    11    1
    11    11    12   ar
    12    12    13   ar
    13    13    14   ar
    14    14    15   ar
    15    15    16   ar
    16    16    11   ar
    17    10    17   ar
    18    17     6   ar
    19     9    18    1
    20    18    19    1
    21    19    20    1
    22    20    21    1
    23    21     8    1
    24    21    22    2
    25    22    23    1
    26    23    24   ar
    27    24    25   ar
    28    25    26   ar
    29    26    27   ar
    30    27    28   ar
    31    28    23   ar
    32     5    29    1
    33    29    30    1
    34    30     2    1
    35     2    31    1
    36     1    32    1
    37     1    33    1
    38     1    34    1
    39     3    35    1
    40     3    36    1
    41     4    37    1
    42     4    38    1
    43    12    39    1
    44    13    40    1
    45    14    41    1
    46    15    42    1
    47    16    43    1
    48    18    44    1
    49    18    45    1
    50    19    46    1
    51    19    47    1
    52    20    48    1
    53    20    49    1
    54    22    50    1
    55    24    51    1
    56    25    52    1
    57    26    53    1
    58    27    54    1
    59    28    55    1
    60    29    56    1
    61    29    57    1
    62    30    58    1
    63    30    59    1
