@<TRIPOS>MOLECULE
*****
 59 63 0 0 0
SMALL
USER_CHARGES

@<TRIPOS>ATOM
      1 C1          1.3931    3.5168    0.0025 C.3     1  LIG1        0.0000
      2 N2          1.3820    2.0474    0.0363 N.4     1  LIG1        1.0000
      3 C3          2.0728    1.6480    1.2735 C.3     1  LIG1        0.0000
      4 C4          2.0915    0.1371    1.4521 C.3     1  LIG1        0.0000
      5 N5          0.7679   -0.4520    1.1946 N.pl3   1  LIG1        0.0000
      6 C6          0.3810   -1.5845    1.9279 C.ar    1  LIG1        0.0000
      7 N7          1.1616   -2.1476    2.8659 N.ar    1  LIG1        0.0000
      8 C8          0.7766   -3.2160    3.5926 C.ar    1  LIG1        0.0000
      9 C9         -0.4814   -3.7563    3.3835 C.ar    1  LIG1        0.0000
     10 C10        -1.2653   -3.1888    2.3894 C.ar    1  LIG1        0.0000
     11 C11        -2.5893   -3.6951    2.0829 C.ar    1  LIG1        0.0000
     12 C12        -3.6256   -2.8027    1.8285 C.ar    1  LIG1        0.0000
     13 C13        -4.8924   -3.2971    1.5361 C.ar    1  LIG1        0.0000
     14 C14        -5.1125   -4.6706    1.4999 C.ar    1  LIG1        0.0000
     15 C15        -4.0703   -5.5558    1.7553 C.ar    1  LIG1        0.0000
     16 C16        -2.8003   -5.0697    2.0493 C.ar    1  LIG1        0.0000
     17 N17        -0.8225   -2.1298    1.7020 N.ar    1  LIG1        0.0000
     18 C18        -0.9348   -4.9105    4.2740 C.3     1  LIG1        0.0000
     19 C19        -0.5780   -4.5282    5.7006 C.3     1  LIG1        0.0000
     20 C20         0.9032   -4.2423    5.9148 C.3     1  LIG1        0.0000
     21 C21         1.5893   -3.8309    4.6204 C.2     1  LIG1        0.0000
     22 C22         2.8883   -4.0385    4.4918 C.2     1  LIG1        0.0000
     23 C23         3.6334   -4.6613    5.5690 C.ar    1  LIG1        0.0000
     24 C24         3.2888   -5.9399    5.9947 C.ar    1  LIG1        0.0000
     25 C25         4.0082   -6.5293    7.0289 C.ar    1  LIG1        0.0000
     26 C26         5.0600   -5.8410    7.6259 C.ar    1  LIG1        0.0000
     27 C27         5.3979   -4.5627    7.1936 C.ar    1  LIG1        0.0000
     28 C28         4.6830   -3.9656    6.1602 C.ar    1  LIG1        0.0000
     29 C29        -0.1643    0.1094    0.2033 C.3     1  LIG1        0.0000
     30 C30        -0.0263    1.6207    0.0909 C.3     1  LIG1        0.0000
     31 H           1.8399    1.6676   -0.7675 H       1  LIG1        0.0000
     32 H           0.9316    3.8347   -0.8258 H       1  LIG1        0.0000
     33 H           0.9168    3.8724    0.8067 H       1  LIG1        0.0000
     34 H           2.3383    3.8432    0.0036 H       1  LIG1        0.0000
     35 H           1.6019    2.0597    2.0537 H       1  LIG1        0.0000
     36 H           3.0151    1.9810    1.2393 H       1  LIG1        0.0000
     37 H           2.7527   -0.2575    0.8140 H       1  LIG1        0.0000
     38 H           2.3653   -0.0760    2.3900 H       1  LIG1        0.0000
     39 H          -3.4616   -1.8166    1.8556 H       1  LIG1        0.0000
     40 H          -5.6452   -2.6652    1.3518 H       1  LIG1        0.0000
     41 H          -6.0244   -5.0231    1.2893 H       1  LIG1        0.0000
     42 H          -4.2339   -6.5420    1.7276 H       1  LIG1        0.0000
     43 H          -2.0475   -5.7014    2.2344 H       1  LIG1        0.0000
     44 H          -0.4618   -5.7524    4.0144 H       1  LIG1        0.0000
     45 H          -1.9224   -5.0433    4.1897 H       1  LIG1        0.0000
     46 H          -0.8431   -5.2809    6.3033 H       1  LIG1        0.0000
     47 H          -1.0949   -3.7077    5.9448 H       1  LIG1        0.0000
     48 H           0.9974   -3.5024    6.5810 H       1  LIG1        0.0000
     49 H           1.3448   -5.0670    6.2679 H       1  LIG1        0.0000
     50 H           3.3574   -3.7661    3.6517 H       1  LIG1        0.0000
     51 H           2.5321   -6.4300    5.5619 H       1  LIG1        0.0000
     52 H           3.7695   -7.4480    7.3436 H       1  LIG1        0.0000
     53 H           5.5754   -6.2673    8.3693 H       1  LIG1        0.0000
     54 H           6.1549   -4.0727    7.6258 H       1  LIG1        0.0000
     55 H           4.9210   -3.0466    5.8458 H       1  LIG1        0.0000
     56 H          -1.1003   -0.1107    0.4781 H       1  LIG1        0.0000
     57 H           0.0262   -0.3004   -0.6887 H       1  LIG1        0.0000
     58 H          -0.4877    1.9253   -0.7423 H       1  LIG1        0.0000
     59 H          -0.4605    2.0439    0.8862 H       1  LIG1        0.0000
@<TRIPOS>UNITY_ATOM_ATTR
2 1
charge 1
@<TRIPOS>BOND
     1     1     2    1
     2     2     3    1
     3     3     4    1
     4     4     5    1
     5     5     6    1
     6     6     7   ar
     7     7     8   ar
     8     8     9   ar
     9     9    10   ar
    10    10    11    1
    11    11    12   ar
    12    12    13   ar
    13    13    14   ar
    14    14    15   ar
    15    15    16   ar
    16    16    11   ar
    17    10    17   ar
    18    17     6   ar
    19     9    18    1
    20    18    19    1
    21    19    20    1
    22    20    21    1
    23    21     8    1
    24    21    22    2
    25    22    23    1
    26    23    24   ar
    27    24    25   ar
    28    25    26   ar
    29    26    27   ar
    30    27    28   ar
    31    28    23   ar
    32     5    29    1
    33    29    30    1
    34    30     2    1
    35     2    31    1
    36     1    32    1
    37     1    33    1
    38     1    34    1
    39     3    35    1
    40     3    36    1
    41     4    37    1
    42     4    38    1
    43    12    39    1
    44    13    40    1
    45    14    41    1
    46    15    42    1
    47    16    43    1
    48    18    44    1
    49    18    45    1
    50    19    46    1
    51    19    47    1
    52    20    48    1
    53    20    49    1
    54    22    50    1
    55    24    51    1
    56    25    52    1
    57    26    53    1
    58    27    54    1
    59    28    55    1
    60    29    56    1
    61    29    57    1
    62    30    58    1
    63    30    59    1
