@<TRIPOS>MOLECULE
*****
 59 63 0 0 0
SMALL
USER_CHARGES

@<TRIPOS>ATOM
      1 C1          1.3931    3.5168    0.0025 C.3     1  LIG1        0.0000
      2 N2          1.3820    2.0474    0.0363 N.4     1  LIG1        1.0000
      3 C3          2.0728    1.6480    1.2735 C.3     1  LIG1        0.0000
      4 C4          2.0915    0.1371    1.4521 C.3     1  LIG1        0.0000
      5 N5          0.7679   -0.4520    1.1946 N.pl3   1  LIG1        0.0000
      6 C6          0.3816   -1.5829    1.9269 C.ar    1  LIG1        0.0000
      7 N7         -0.8166   -2.1615    1.7497 N.ar    1  LIG1        0.0000
      8 C8         -1.2258   -3.2257    2.4658 C.ar    1  LIG1        0.0000
      9 C9         -0.3837   -3.7506    3.4362 C.ar    1  LIG1        0.0000
     10 C10         0.8756   -3.1684    3.5872 C.ar    1  LIG1        0.0000
     11 C11         1.8394   -3.6558    4.5551 C.ar    1  LIG1        0.0000
     12 C12         2.5882   -2.7487    5.2976 C.ar    1  LIG1        0.0000
     13 C13         3.5107   -3.2250    6.2232 C.ar    1  LIG1        0.0000
     14 C14         3.6768   -4.5954    6.3988 C.ar    1  LIG1        0.0000
     15 C15         2.9235   -5.4954    5.6521 C.ar    1  LIG1        0.0000
     16 C16         1.9990   -5.0274    4.7237 C.ar    1  LIG1        0.0000
     17 N17         1.2100   -2.1086    2.8411 N.ar    1  LIG1        0.0000
     18 C18        -0.8561   -4.9130    4.3009 C.3     1  LIG1        0.0000
     19 C19        -2.2778   -4.5913    4.7355 C.3     1  LIG1        0.0000
     20 C20        -3.2349   -4.2751    3.5924 C.3     1  LIG1        0.0000
     21 C21        -2.5195   -3.8613    2.3144 C.2     1  LIG1        0.0000
     22 C22        -3.0543   -4.0623    1.1229 C.2     1  LIG1        0.0000
     23 C23        -4.3510   -4.7014    1.0085 C.ar    1  LIG1        0.0000
     24 C24        -5.4619   -4.1164    1.6073 C.ar    1  LIG1        0.0000
     25 C25        -6.7016   -4.7367    1.4931 C.ar    1  LIG1        0.0000
     26 C26        -6.8211   -5.9291    0.7858 C.ar    1  LIG1        0.0000
     27 C27        -5.7048   -6.5070    0.1899 C.ar    1  LIG1        0.0000
     28 C28        -4.4610   -5.8934    0.2999 C.ar    1  LIG1        0.0000
     29 C29        -0.1643    0.1094    0.2033 C.3     1  LIG1        0.0000
     30 C30        -0.0263    1.6207    0.0909 C.3     1  LIG1        0.0000
     31 H           1.8399    1.6676   -0.7675 H       1  LIG1        0.0000
     32 H           0.9316    3.8347   -0.8258 H       1  LIG1        0.0000
     33 H           0.9168    3.8724    0.8067 H       1  LIG1        0.0000
     34 H           2.3383    3.8432    0.0036 H       1  LIG1        0.0000
     35 H           1.6019    2.0597    2.0537 H       1  LIG1        0.0000
     36 H           3.0151    1.9810    1.2393 H       1  LIG1        0.0000
     37 H           2.7527   -0.2575    0.8140 H       1  LIG1        0.0000
     38 H           2.3653   -0.0760    2.3900 H       1  LIG1        0.0000
     39 H           2.4645   -1.7649    5.1675 H       1  LIG1        0.0000
     40 H           4.0549   -2.5824    6.7626 H       1  LIG1        0.0000
     41 H           4.3409   -4.9348    7.0650 H       1  LIG1        0.0000
     42 H           3.0465   -6.4792    5.7826 H       1  LIG1        0.0000
     43 H           1.4553   -5.6698    4.1837 H       1  LIG1        0.0000
     44 H          -0.2649   -5.0084    5.1017 H       1  LIG1        0.0000
     45 H          -0.8418   -5.7623    3.7730 H       1  LIG1        0.0000
     46 H          -2.2460   -3.7983    5.3439 H       1  LIG1        0.0000
     47 H          -2.6374   -5.3799    5.2343 H       1  LIG1        0.0000
     48 H          -3.7829   -5.0894    3.4014 H       1  LIG1        0.0000
     49 H          -3.8357   -3.5282    3.8773 H       1  LIG1        0.0000
     50 H          -2.5648   -3.7736    0.3001 H       1  LIG1        0.0000
     51 H          -5.3703   -3.2593    2.1142 H       1  LIG1        0.0000
     52 H          -7.5074   -4.3256    1.9195 H       1  LIG1        0.0000
     53 H          -7.7137   -6.3727    0.7054 H       1  LIG1        0.0000
     54 H          -5.7964   -7.3637   -0.3176 H       1  LIG1        0.0000
     55 H          -3.6550   -6.3047   -0.1258 H       1  LIG1        0.0000
     56 H          -1.1003   -0.1107    0.4781 H       1  LIG1        0.0000
     57 H           0.0262   -0.3004   -0.6887 H       1  LIG1        0.0000
     58 H          -0.4877    1.9253   -0.7423 H       1  LIG1        0.0000
     59 H          -0.4605    2.0439    0.8862 H       1  LIG1        0.0000
@<TRIPOS>UNITY_ATOM_ATTR
2 1
charge 1
@<TRIPOS>BOND
     1     1     2    1
     2     2     3    1
     3     3     4    1
     4     4     5    1
     5     5     6    1
     6     6     7   ar
     7     7     8   ar
     8     8     9   ar
     9     9    10   ar
    10    10    11    1
    11    11    12   ar
    12    12    13   ar
    13    13    14   ar
    14    14    15   ar
    15    15    16   ar
    16    16    11   ar
    17    10    17   ar
    18    17     6   ar
    19     9    18    1
    20    18    19    1
    21    19    20    1
    22    20    21    1
    23    21     8    1
    24    21    22    2
    25    22    23    1
    26    23    24   ar
    27    24    25   ar
    28    25    26   ar
    29    26    27   ar
    30    27    28   ar
    31    28    23   ar
    32     5    29    1
    33    29    30    1
    34    30     2    1
    35     2    31    1
    36     1    32    1
    37     1    33    1
    38     1    34    1
    39     3    35    1
    40     3    36    1
    41     4    37    1
    42     4    38    1
    43    12    39    1
    44    13    40    1
    45    14    41    1
    46    15    42    1
    47    16    43    1
    48    18    44    1
    49    18    45    1
    50    19    46    1
    51    19    47    1
    52    20    48    1
    53    20    49    1
    54    22    50    1
    55    24    51    1
    56    25    52    1
    57    26    53    1
    58    27    54    1
    59    28    55    1
    60    29    56    1
    61    29    57    1
    62    30    58    1
    63    30    59    1
