@<TRIPOS>MOLECULE
*****
 59 63 0 0 0
SMALL
USER_CHARGES

@<TRIPOS>ATOM
      1 C1          1.3710    3.5027    0.0419 C.3     1  LIG1        0.0000
      2 N2          1.0948    2.1529    0.5523 N.4     1  LIG1        1.0000
      3 C3          0.2931    1.3783   -0.4069 C.3     1  LIG1        0.0000
      4 C4         -0.1987    0.0857    0.2238 C.3     1  LIG1        0.0000
      5 N5          0.6691   -0.2362    1.3699 N.pl3   1  LIG1        0.0000
      6 C6          0.0860   -0.9269    2.4438 C.ar    1  LIG1        0.0000
      7 N7          0.8419   -1.2444    3.5073 N.ar    1  LIG1        0.0000
      8 C8          0.3596   -1.9142    4.5674 C.ar    1  LIG1        0.0000
      9 C9         -0.9732   -2.3109    4.5266 C.ar    1  LIG1        0.0000
     10 C10        -1.7633   -1.9604    3.4381 C.ar    1  LIG1        0.0000
     11 C11        -3.1641   -2.3205    3.3304 C.ar    1  LIG1        0.0000
     12 C12        -4.0690   -1.4113    2.7926 C.ar    1  LIG1        0.0000
     13 C13        -5.4106   -1.7647    2.6937 C.ar    1  LIG1        0.0000
     14 C14        -5.8350   -3.0161    3.1301 C.ar    1  LIG1        0.0000
     15 C15        -4.9230   -3.9192    3.6664 C.ar    1  LIG1        0.0000
     16 C16        -3.5793   -3.5734    3.7695 C.ar    1  LIG1        0.0000
     17 N17        -1.2096   -1.2825    2.4328 N.ar    1  LIG1        0.0000
     18 C18        -1.5601   -3.1424    5.6619 C.3     1  LIG1        0.0000
     19 C19        -0.8216   -2.9211    6.9708 C.3     1  LIG1        0.0000
     20 C20         0.6448   -3.2481    6.7252 C.3     1  LIG1        0.0000
     21 C21         1.1915   -2.2566    5.7152 C.2     1  LIG1        0.0000
     22 C22         2.3851   -1.7349    5.9166 C.2     1  LIG1        0.0000
     23 C23         3.1584   -2.1214    7.0810 C.ar    1  LIG1        0.0000
     24 C24         3.5128   -3.4545    7.2603 C.ar    1  LIG1        0.0000
     25 C25         4.2539   -3.8164    8.3803 C.ar    1  LIG1        0.0000
     26 C26         4.6330   -2.8496    9.3066 C.ar    1  LIG1        0.0000
     27 C27         4.2744   -1.5187    9.1191 C.ar    1  LIG1        0.0000
     28 C28         3.5326   -1.1483    8.0019 C.ar    1  LIG1        0.0000
     29 C29         2.0883    0.1410    1.4832 C.3     1  LIG1        0.0000
     30 C30         2.3705    1.4521    0.7626 C.3     1  LIG1        0.0000
     31 H           0.6036    2.2189    1.4208 H       1  LIG1        0.0000
     32 H           1.9162    4.0072    0.7114 H       1  LIG1        0.0000
     33 H           1.8769    3.4368   -0.8182 H       1  LIG1        0.0000
     34 H           0.5080    3.9829   -0.1150 H       1  LIG1        0.0000
     35 H           0.8555    1.1610   -1.2048 H       1  LIG1        0.0000
     36 H          -0.4944    1.9243   -0.6929 H       1  LIG1        0.0000
     37 H          -1.1415    0.2006    0.5365 H       1  LIG1        0.0000
     38 H          -0.1581   -0.6540   -0.4480 H       1  LIG1        0.0000
     39 H          -3.7585   -0.5135    2.4804 H       1  LIG1        0.0000
     40 H          -6.0705   -1.1193    2.3090 H       1  LIG1        0.0000
     41 H          -6.8002   -3.2674    3.0577 H       1  LIG1        0.0000
     42 H          -5.2333   -4.8174    3.9780 H       1  LIG1        0.0000
     43 H          -2.9194   -4.2184    4.1549 H       1  LIG1        0.0000
     44 H          -1.5006   -4.1102    5.4174 H       1  LIG1        0.0000
     45 H          -2.5194   -2.8882    5.7856 H       1  LIG1        0.0000
     46 H          -1.1923   -3.5224    7.6786 H       1  LIG1        0.0000
     47 H          -0.9159   -1.9684    7.2599 H       1  LIG1        0.0000
     48 H           1.1557   -3.1747    7.5818 H       1  LIG1        0.0000
     49 H           0.7284   -4.1776    6.3660 H       1  LIG1        0.0000
     50 H           2.7574   -1.0725    5.2665 H       1  LIG1        0.0000
     51 H           3.2378   -4.1451    6.5913 H       1  LIG1        0.0000
     52 H           4.5143   -4.7718    8.5200 H       1  LIG1        0.0000
     53 H           5.1658   -3.1128   10.1108 H       1  LIG1        0.0000
     54 H           4.5499   -0.8279    9.7877 H       1  LIG1        0.0000
     55 H           3.2714   -0.1931    7.8624 H       1  LIG1        0.0000
     56 H           2.6506   -0.5805    1.0791 H       1  LIG1        0.0000
     57 H           2.3221    0.2436    2.4500 H       1  LIG1        0.0000
     58 H           2.9788    2.0185    1.3186 H       1  LIG1        0.0000
     59 H           2.8025    1.2659   -0.1199 H       1  LIG1        0.0000
@<TRIPOS>UNITY_ATOM_ATTR
2 1
charge 1
@<TRIPOS>BOND
     1     1     2    1
     2     2     3    1
     3     3     4    1
     4     4     5    1
     5     5     6    1
     6     6     7   ar
     7     7     8   ar
     8     8     9   ar
     9     9    10   ar
    10    10    11    1
    11    11    12   ar
    12    12    13   ar
    13    13    14   ar
    14    14    15   ar
    15    15    16   ar
    16    16    11   ar
    17    10    17   ar
    18    17     6   ar
    19     9    18    1
    20    18    19    1
    21    19    20    1
    22    20    21    1
    23    21     8    1
    24    21    22    2
    25    22    23    1
    26    23    24   ar
    27    24    25   ar
    28    25    26   ar
    29    26    27   ar
    30    27    28   ar
    31    28    23   ar
    32     5    29    1
    33    29    30    1
    34    30     2    1
    35     2    31    1
    36     1    32    1
    37     1    33    1
    38     1    34    1
    39     3    35    1
    40     3    36    1
    41     4    37    1
    42     4    38    1
    43    12    39    1
    44    13    40    1
    45    14    41    1
    46    15    42    1
    47    16    43    1
    48    18    44    1
    49    18    45    1
    50    19    46    1
    51    19    47    1
    52    20    48    1
    53    20    49    1
    54    22    50    1
    55    24    51    1
    56    25    52    1
    57    26    53    1
    58    27    54    1
    59    28    55    1
    60    29    56    1
    61    29    57    1
    62    30    58    1
    63    30    59    1
