@<TRIPOS>MOLECULE
*****
 59 63 0 0 0
SMALL
USER_CHARGES

@<TRIPOS>ATOM
      1 C1          1.3931    3.5168    0.0025 C.3     1  LIG1        0.0000
      2 N2          1.3820    2.0474    0.0363 N.4     1  LIG1        1.0000
      3 C3          2.0728    1.6480    1.2735 C.3     1  LIG1        0.0000
      4 C4          2.0915    0.1371    1.4521 C.3     1  LIG1        0.0000
      5 N5          0.7679   -0.4520    1.1946 N.pl3   1  LIG1        0.0000
      6 C6          0.3810   -1.5845    1.9279 C.ar    1  LIG1        0.0000
      7 N7         -0.8016   -2.1982    1.7520 N.ar    1  LIG1        0.0000
      8 C8         -1.1596   -3.3049    2.4337 C.ar    1  LIG1        0.0000
      9 C9         -0.2728   -3.8515    3.3465 C.ar    1  LIG1        0.0000
     10 C10         0.9307   -3.1906    3.5452 C.ar    1  LIG1        0.0000
     11 C11         1.9166   -3.6740    4.4926 C.ar    1  LIG1        0.0000
     12 C12         3.2656   -3.6510    4.1542 C.ar    1  LIG1        0.0000
     13 C13         4.2042   -4.1172    5.0687 C.ar    1  LIG1        0.0000
     14 C14         3.7903   -4.5997    6.3066 C.ar    1  LIG1        0.0000
     15 C15         2.4391   -4.6188    6.6367 C.ar    1  LIG1        0.0000
     16 C16         1.4937   -4.1548    5.7276 C.ar    1  LIG1        0.0000
     17 N17         1.2242   -2.0941    2.8370 N.ar    1  LIG1        0.0000
     18 C18        -0.6583   -5.1527    4.0458 C.3     1  LIG1        0.0000
     19 C19        -1.2017   -6.0813    2.9730 C.3     1  LIG1        0.0000
     20 C20        -2.3923   -5.5167    2.2080 C.3     1  LIG1        0.0000
     21 C21        -2.4184   -3.9958    2.2513 C.2     1  LIG1        0.0000
     22 C22        -3.5753   -3.3722    2.1106 C.2     1  LIG1        0.0000
     23 C23        -4.7944   -4.1372    1.9320 C.ar    1  LIG1        0.0000
     24 C24        -4.9173   -4.9914    0.8411 C.ar    1  LIG1        0.0000
     25 C25        -6.0902   -5.7207    0.6771 C.ar    1  LIG1        0.0000
     26 C26        -7.1248   -5.5919    1.5989 C.ar    1  LIG1        0.0000
     27 C27        -6.9931   -4.7355    2.6871 C.ar    1  LIG1        0.0000
     28 C28        -5.8235   -4.0019    2.8581 C.ar    1  LIG1        0.0000
     29 C29        -0.1643    0.1094    0.2033 C.3     1  LIG1        0.0000
     30 C30        -0.0263    1.6207    0.0909 C.3     1  LIG1        0.0000
     31 H           1.8399    1.6676   -0.7675 H       1  LIG1        0.0000
     32 H           0.9316    3.8347   -0.8258 H       1  LIG1        0.0000
     33 H           0.9168    3.8724    0.8067 H       1  LIG1        0.0000
     34 H           2.3383    3.8432    0.0036 H       1  LIG1        0.0000
     35 H           1.6019    2.0597    2.0537 H       1  LIG1        0.0000
     36 H           3.0151    1.9810    1.2393 H       1  LIG1        0.0000
     37 H           2.7527   -0.2575    0.8140 H       1  LIG1        0.0000
     38 H           2.3653   -0.0760    2.3900 H       1  LIG1        0.0000
     39 H           3.5573   -3.3030    3.2633 H       1  LIG1        0.0000
     40 H           5.1768   -4.1058    4.8364 H       1  LIG1        0.0000
     41 H           4.4675   -4.9342    6.9620 H       1  LIG1        0.0000
     42 H           2.1472   -4.9661    7.5279 H       1  LIG1        0.0000
     43 H           0.5210   -4.1669    5.9593 H       1  LIG1        0.0000
     44 H          -1.3591   -4.9777    4.7374 H       1  LIG1        0.0000
     45 H           0.1444   -5.5610    4.4806 H       1  LIG1        0.0000
     46 H          -1.4853   -6.9347    3.4103 H       1  LIG1        0.0000
     47 H          -0.4687   -6.2692    2.3193 H       1  LIG1        0.0000
     48 H          -2.3350   -5.8129    1.2546 H       1  LIG1        0.0000
     49 H          -3.2354   -5.8671    2.6159 H       1  LIG1        0.0000
     50 H          -3.6100   -2.3730    2.1273 H       1  LIG1        0.0000
     51 H          -4.1705   -5.0802    0.1819 H       1  LIG1        0.0000
     52 H          -6.1901   -6.3378   -0.1034 H       1  LIG1        0.0000
     53 H          -7.9669   -6.1176    1.4784 H       1  LIG1        0.0000
     54 H          -7.7395   -4.6471    3.3467 H       1  LIG1        0.0000
     55 H          -5.7236   -3.3841    3.6381 H       1  LIG1        0.0000
     56 H          -1.1003   -0.1107    0.4781 H       1  LIG1        0.0000
     57 H           0.0262   -0.3004   -0.6887 H       1  LIG1        0.0000
     58 H          -0.4877    1.9253   -0.7423 H       1  LIG1        0.0000
     59 H          -0.4605    2.0439    0.8862 H       1  LIG1        0.0000
@<TRIPOS>UNITY_ATOM_ATTR
2 1
charge 1
@<TRIPOS>BOND
     1     1     2    1
     2     2     3    1
     3     3     4    1
     4     4     5    1
     5     5     6    1
     6     6     7   ar
     7     7     8   ar
     8     8     9   ar
     9     9    10   ar
    10    10    11    1
    11    11    12   ar
    12    12    13   ar
    13    13    14   ar
    14    14    15   ar
    15    15    16   ar
    16    16    11   ar
    17    10    17   ar
    18    17     6   ar
    19     9    18    1
    20    18    19    1
    21    19    20    1
    22    20    21    1
    23    21     8    1
    24    21    22    2
    25    22    23    1
    26    23    24   ar
    27    24    25   ar
    28    25    26   ar
    29    26    27   ar
    30    27    28   ar
    31    28    23   ar
    32     5    29    1
    33    29    30    1
    34    30     2    1
    35     2    31    1
    36     1    32    1
    37     1    33    1
    38     1    34    1
    39     3    35    1
    40     3    36    1
    41     4    37    1
    42     4    38    1
    43    12    39    1
    44    13    40    1
    45    14    41    1
    46    15    42    1
    47    16    43    1
    48    18    44    1
    49    18    45    1
    50    19    46    1
    51    19    47    1
    52    20    48    1
    53    20    49    1
    54    22    50    1
    55    24    51    1
    56    25    52    1
    57    26    53    1
    58    27    54    1
    59    28    55    1
    60    29    56    1
    61    29    57    1
    62    30    58    1
    63    30    59    1
