@<TRIPOS>MOLECULE
*****
 59 63 0 0 0
SMALL
USER_CHARGES

@<TRIPOS>ATOM
      1 C1         -0.7206    1.9999   -1.1897 C.3     1  LIG1        0.0000
      2 N2          0.0355    1.4784   -0.0420 N.4     1  LIG1        1.0000
      3 C3          1.4050    2.0065   -0.1569 C.3     1  LIG1        0.0000
      4 C4          2.3143    1.4839    0.9455 C.3     1  LIG1        0.0000
      5 N5          2.1479    0.0346    1.1410 N.pl3   1  LIG1        0.0000
      6 C6          3.2641   -0.7220    1.5365 C.ar    1  LIG1        0.0000
      7 N7          3.1985   -2.0541    1.7281 N.ar    1  LIG1        0.0000
      8 C8          4.2450   -2.8235    2.0898 C.ar    1  LIG1        0.0000
      9 C9          5.4726   -2.1807    2.2450 C.ar    1  LIG1        0.0000
     10 C10         5.5557   -0.8005    2.0784 C.ar    1  LIG1        0.0000
     11 C11         6.7896   -0.0573    2.2477 C.ar    1  LIG1        0.0000
     12 C12         6.7627    1.1904    2.8621 C.ar    1  LIG1        0.0000
     13 C13         7.9506    1.8965    3.0197 C.ar    1  LIG1        0.0000
     14 C14         9.1488    1.3538    2.5654 C.ar    1  LIG1        0.0000
     15 C15         9.1663    0.1052    1.9523 C.ar    1  LIG1        0.0000
     16 C16         7.9825   -0.6074    1.7901 C.ar    1  LIG1        0.0000
     17 N17         4.4510   -0.1170    1.7274 N.ar    1  LIG1        0.0000
     18 C18         6.7197   -2.9926    2.5923 C.3     1  LIG1        0.0000
     19 C19         6.4309   -4.3089    3.2933 C.3     1  LIG1        0.0000
     20 C20         5.4133   -5.0798    2.4661 C.3     1  LIG1        0.0000
     21 C21         4.1460   -4.2499    2.3100 C.2     1  LIG1        0.0000
     22 C22         2.9819   -4.8603    2.4080 C.2     1  LIG1        0.0000
     23 C23         2.9305   -6.2927    2.6289 C.ar    1  LIG1        0.0000
     24 C24         3.5067   -7.1534    1.7003 C.ar    1  LIG1        0.0000
     25 C25         3.4521   -8.5258    1.9198 C.ar    1  LIG1        0.0000
     26 C26         2.8265   -9.0245    3.0584 C.ar    1  LIG1        0.0000
     27 C27         2.2532   -8.1564    3.9819 C.ar    1  LIG1        0.0000
     28 C28         2.3028   -6.7823    3.7696 C.ar    1  LIG1        0.0000
     29 C29         0.8651   -0.6536    0.9270 C.3     1  LIG1        0.0000
     30 C30         0.0481    0.0122   -0.1705 C.3     1  LIG1        0.0000
     31 H          -0.3851    1.7585    0.8209 H       1  LIG1        0.0000
     32 H          -1.6614    1.6633   -1.1498 H       1  LIG1        0.0000
     33 H          -0.7227    2.9994   -1.1611 H       1  LIG1        0.0000
     34 H          -0.2920    1.6916   -2.0390 H       1  LIG1        0.0000
     35 H           1.3716    3.0043   -0.1013 H       1  LIG1        0.0000
     36 H           1.7823    1.7344   -1.0421 H       1  LIG1        0.0000
     37 H           3.2650    1.6713    0.6985 H       1  LIG1        0.0000
     38 H           2.0928    1.9545    1.7996 H       1  LIG1        0.0000
     39 H           5.8989    1.5755    3.1869 H       1  LIG1        0.0000
     40 H           7.9437    2.7945    3.4596 H       1  LIG1        0.0000
     41 H          10.0013    1.8638    2.6801 H       1  LIG1        0.0000
     42 H          10.0302   -0.2803    1.6281 H       1  LIG1        0.0000
     43 H           7.9891   -1.5051    1.3495 H       1  LIG1        0.0000
     44 H           7.2978   -2.4386    3.1913 H       1  LIG1        0.0000
     45 H           7.2113   -3.1903    1.7442 H       1  LIG1        0.0000
     46 H           6.0605   -4.1318    4.2051 H       1  LIG1        0.0000
     47 H           7.2738   -4.8409    3.3734 H       1  LIG1        0.0000
     48 H           5.7971   -5.2740    1.5633 H       1  LIG1        0.0000
     49 H           5.1932   -5.9397    2.9266 H       1  LIG1        0.0000
     50 H           2.1342   -4.3357    2.3300 H       1  LIG1        0.0000
     51 H           3.9552   -6.7895    0.8840 H       1  LIG1        0.0000
     52 H           3.8626   -9.1543    1.2592 H       1  LIG1        0.0000
     53 H           2.7889  -10.0117    3.2135 H       1  LIG1        0.0000
     54 H           1.8053   -8.5201    4.7986 H       1  LIG1        0.0000
     55 H           1.8917   -6.1536    4.4297 H       1  LIG1        0.0000
     56 H           0.3408   -0.6349    1.7784 H       1  LIG1        0.0000
     57 H           1.0452   -1.6023    0.6673 H       1  LIG1        0.0000
     58 H           0.4420   -0.2300   -1.0572 H       1  LIG1        0.0000
     59 H          -0.8925   -0.3236   -0.1207 H       1  LIG1        0.0000
@<TRIPOS>UNITY_ATOM_ATTR
2 1
charge 1
@<TRIPOS>BOND
     1     1     2    1
     2     2     3    1
     3     3     4    1
     4     4     5    1
     5     5     6    1
     6     6     7   ar
     7     7     8   ar
     8     8     9   ar
     9     9    10   ar
    10    10    11    1
    11    11    12   ar
    12    12    13   ar
    13    13    14   ar
    14    14    15   ar
    15    15    16   ar
    16    16    11   ar
    17    10    17   ar
    18    17     6   ar
    19     9    18    1
    20    18    19    1
    21    19    20    1
    22    20    21    1
    23    21     8    1
    24    21    22    2
    25    22    23    1
    26    23    24   ar
    27    24    25   ar
    28    25    26   ar
    29    26    27   ar
    30    27    28   ar
    31    28    23   ar
    32     5    29    1
    33    29    30    1
    34    30     2    1
    35     2    31    1
    36     1    32    1
    37     1    33    1
    38     1    34    1
    39     3    35    1
    40     3    36    1
    41     4    37    1
    42     4    38    1
    43    12    39    1
    44    13    40    1
    45    14    41    1
    46    15    42    1
    47    16    43    1
    48    18    44    1
    49    18    45    1
    50    19    46    1
    51    19    47    1
    52    20    48    1
    53    20    49    1
    54    22    50    1
    55    24    51    1
    56    25    52    1
    57    26    53    1
    58    27    54    1
    59    28    55    1
    60    29    56    1
    61    29    57    1
    62    30    58    1
    63    30    59    1
