@<TRIPOS>MOLECULE

  19   20
SMALL
USER_CHARGES
@<TRIPOS>ATOM
   1 Br1          1.6012     5.1938     0.5222 Br           1    LIG   0.0000
   2 C2           0.5241     3.5902     0.1903 C.2          1    LIG   0.0000
   3 C3          -0.8246     3.5741     0.0047 C.2          1    LIG   0.0000
   4 N4          -1.1660     2.2694    -0.1895 N.2          1    LIG   0.0000
   5 C5          -0.0770     1.5298    -0.1357 C.2          1    LIG   0.0000
   6 N6           1.0020     2.3134     0.1256 N.pl3        1    LIG   0.0000
   7 C7           2.3250     1.6764     0.2842 C.3          1    LIG   0.0000
   8 C8           2.4657     0.2921    -0.3218 C.3          1    LIG   0.0000
   9 C9           1.3364    -0.5359     0.2632 C.3          1    LIG   0.0000
  10 C10          0.0552     0.0256    -0.3369 C.3          1    LIG   0.0000
  11 H           -1.4409     4.3616     0.0099 H            1    LIG   0.0000
  12 H            2.5159     1.6042     1.2631 H            1    LIG   0.0000
  13 H            3.0054     2.2704    -0.1451 H            1    LIG   0.0000
  14 H            3.3504    -0.1056    -0.0787 H            1    LIG   0.0000
  15 H            2.3833     0.3383    -1.3173 H            1    LIG   0.0000
  16 H            1.4450    -1.4982     0.0138 H            1    LIG   0.0000
  17 H            1.3212    -0.4494     1.2593 H            1    LIG   0.0000
  18 H            0.0497    -0.1678    -1.3180 H            1    LIG   0.0000
  19 H           -0.7254    -0.4251     0.0961 H            1    LIG   0.0000
@<TRIPOS>BOND
   1        1        2 1
   2        2        3 2
   3        3        4 1
   4        4        5 2
   5        5        6 1
   6        6        2 1
   7        6        7 1
   8        7        8 1
   9        8        9 1
  10        9       10 1
  11       10        5 1
  12        3       11 1
  13        7       12 1
  14        7       13 1
  15        8       14 1
  16        8       15 1
  17        9       16 1
  18        9       17 1
  19       10       18 1
  20       10       19 1

@<TRIPOS>MOLECULE

  19   20
SMALL
USER_CHARGES
@<TRIPOS>ATOM
   1 Br1         -4.3138     0.2662    -0.0257 Br           1    LIG   0.0000
   2 C2          -2.6477    -0.7678    -0.0128 C.2          1    LIG   0.0000
   3 C3          -2.5610    -2.1243     0.0660 C.2          1    LIG   0.0000
   4 N4          -1.2338    -2.4296     0.0452 N.2          1    LIG   0.0000
   5 C5          -0.5409    -1.3116    -0.0271 C.2          1    LIG   0.0000
   6 N6          -1.3851    -0.2569    -0.0793 N.pl3        1    LIG   0.0000
   7 C7          -0.8603     1.1125    -0.1699 C.3          1    LIG   0.0000
   8 C8           0.3607     1.3178     0.7189 C.3          1    LIG   0.0000
   9 C9           1.2376     0.0833     0.9111 C.3          1    LIG   0.0000
  10 C10          0.9594    -1.0707    -0.0495 C.3          1    LIG   0.0000
  11 H           -3.3223    -2.7697     0.1271 H            1    LIG   0.0000
  12 H           -1.5759     1.7515     0.1123 H            1    LIG   0.0000
  13 H           -0.6035     1.2974    -1.1186 H            1    LIG   0.0000
  14 H            0.0420     1.6145     1.6192 H            1    LIG   0.0000
  15 H            0.9233     2.0368     0.3109 H            1    LIG   0.0000
  16 H            2.1912     0.3603     0.7933 H            1    LIG   0.0000
  17 H            1.1004    -0.2510     1.8436 H            1    LIG   0.0000
  18 H            1.2550    -0.8278    -0.9734 H            1    LIG   0.0000
  19 H            1.4442    -1.8923     0.2505 H            1    LIG   0.0000
@<TRIPOS>BOND
   1        1        2 1
   2        2        3 2
   3        3        4 1
   4        4        5 2
   5        5        6 1
   6        6        2 1
   7        6        7 1
   8        7        8 1
   9        8        9 1
  10        9       10 1
  11       10        5 1
  12        3       11 1
  13        7       12 1
  14        7       13 1
  15        8       14 1
  16        8       15 1
  17        9       16 1
  18        9       17 1
  19       10       18 1
  20       10       19 1

@<TRIPOS>MOLECULE

  19   20
SMALL
USER_CHARGES
@<TRIPOS>ATOM
   1 Br1         -0.1146    -1.3830    -4.1866 Br           1    LIG   0.0000
   2 C2          -0.3259    -1.6832    -2.2614 C.2          1    LIG   0.0000
   3 C3          -0.7110    -2.8677    -1.7097 C.2          1    LIG   0.0000
   4 N4          -0.7460    -2.6705    -0.3617 N.2          1    LIG   0.0000
   5 C5          -0.4286    -1.4165    -0.1103 C.2          1    LIG   0.0000
   6 N6          -0.1076    -0.7673    -1.2647 N.pl3        1    LIG   0.0000
   7 C7           0.3737     0.6330    -1.2036 C.3          1    LIG   0.0000
   8 C8          -0.0026     1.4130     0.0578 C.3          1    LIG   0.0000
   9 C9           0.4649     0.5782     1.2365 C.3          1    LIG   0.0000
  10 C10         -0.4015    -0.6757     1.2186 C.3          1    LIG   0.0000
  11 H           -0.9254    -3.7141    -2.1971 H            1    LIG   0.0000
  12 H           -0.0037     1.1216    -1.9903 H            1    LIG   0.0000
  13 H            1.3715     0.6174    -1.2683 H            1    LIG   0.0000
  14 H           -0.9929     1.5454     0.0995 H            1    LIG   0.0000
  15 H            0.4533     2.3030     0.0625 H            1    LIG   0.0000
  16 H            1.4300     0.3374     1.1330 H            1    LIG   0.0000
  17 H            0.3364     1.0793     2.0923 H            1    LIG   0.0000
  18 H           -0.0555    -1.3025     1.9167 H            1    LIG   0.0000
  19 H           -1.3384    -0.4092     1.4448 H            1    LIG   0.0000
@<TRIPOS>BOND
   1        1        2 1
   2        2        3 2
   3        3        4 1
   4        4        5 2
   5        5        6 1
   6        6        2 1
   7        6        7 1
   8        7        8 1
   9        8        9 1
  10        9       10 1
  11       10        5 1
  12        3       11 1
  13        7       12 1
  14        7       13 1
  15        8       14 1
  16        8       15 1
  17        9       16 1
  18        9       17 1
  19       10       18 1
  20       10       19 1

@<TRIPOS>MOLECULE

  19   20
SMALL
USER_CHARGES
@<TRIPOS>ATOM
   1 Br1         -3.8516     0.6223    -1.2913 Br           1    LIG   0.0000
   2 C2          -2.2712    -0.4730    -0.9035 C.2          1    LIG   0.0000
   3 C3          -2.0601    -1.7475    -1.3360 C.2          1    LIG   0.0000
   4 N4          -0.8494    -2.1228    -0.8414 N.2          1    LIG   0.0000
   5 C5          -0.3203    -1.1391    -0.1536 C.2          1    LIG   0.0000
   6 N6          -1.1916    -0.0979    -0.1629 N.pl3        1    LIG   0.0000
   7 C7          -0.8154     1.1333     0.5493 C.3          1    LIG   0.0000
   8 C8           0.6379     1.4870     0.2493 C.3          1    LIG   0.0000
   9 C9           1.6264     0.3203     0.2694 C.3          1    LIG   0.0000
  10 C10          1.0194    -1.0502     0.5607 C.3          1    LIG   0.0000
  11 H           -2.6727    -2.2975    -1.9037 H            1    LIG   0.0000
  12 H           -0.9257     0.9934     1.5333 H            1    LIG   0.0000
  13 H           -1.4068     1.8823     0.2507 H            1    LIG   0.0000
  14 H            0.9378     2.1546     0.9308 H            1    LIG   0.0000
  15 H            0.6711     1.9012    -0.6602 H            1    LIG   0.0000
  16 H            2.0701     0.2768    -0.6257 H            1    LIG   0.0000
  17 H            2.3120     0.5094     0.9724 H            1    LIG   0.0000
  18 H            1.6295    -1.7685     0.2263 H            1    LIG   0.0000
  19 H            0.8855    -1.1585     1.5458 H            1    LIG   0.0000
@<TRIPOS>BOND
   1        1        2 1
   2        2        3 2
   3        3        4 1
   4        4        5 2
   5        5        6 1
   6        6        2 1
   7        6        7 1
   8        7        8 1
   9        8        9 1
  10        9       10 1
  11       10        5 1
  12        3       11 1
  13        7       12 1
  14        7       13 1
  15        8       14 1
  16        8       15 1
  17        9       16 1
  18        9       17 1
  19       10       18 1
  20       10       19 1

