@<TRIPOS>MOLECULE
*****
 19 20 0 0 0
SMALL
USER_CHARGES

@<TRIPOS>ATOM
      1 Br1        -0.1146   -1.3830   -4.1866 Br      1  LIG1        0.0000
      2 C2         -0.3259   -1.6832   -2.2614 C.2     1  LIG1        0.0000
      3 C3         -0.7110   -2.8677   -1.7097 C.2     1  LIG1        0.0000
      4 N4         -0.7460   -2.6705   -0.3617 N.2     1  LIG1        0.0000
      5 C5         -0.4286   -1.4165   -0.1103 C.2     1  LIG1        0.0000
      6 N6         -0.1076   -0.7673   -1.2647 N.pl3   1  LIG1        0.0000
      7 C7          0.3737    0.6330   -1.2036 C.3     1  LIG1        0.0000
      8 C8         -0.0026    1.4130    0.0578 C.3     1  LIG1        0.0000
      9 C9          0.4649    0.5782    1.2365 C.3     1  LIG1        0.0000
     10 C10        -0.4015   -0.6757    1.2186 C.3     1  LIG1        0.0000
     11 H          -0.9254   -3.7141   -2.1971 H       1  LIG1        0.0000
     12 H          -0.0037    1.1216   -1.9903 H       1  LIG1        0.0000
     13 H           1.3715    0.6174   -1.2683 H       1  LIG1        0.0000
     14 H          -0.9929    1.5454    0.0995 H       1  LIG1        0.0000
     15 H           0.4533    2.3030    0.0625 H       1  LIG1        0.0000
     16 H           1.4300    0.3374    1.1330 H       1  LIG1        0.0000
     17 H           0.3364    1.0793    2.0923 H       1  LIG1        0.0000
     18 H          -0.0555   -1.3025    1.9167 H       1  LIG1        0.0000
     19 H          -1.3384   -0.4092    1.4448 H       1  LIG1        0.0000
@<TRIPOS>BOND
     1     1     2    1
     2     2     3    2
     3     3     4    1
     4     4     5    2
     5     5     6    1
     6     6     2    1
     7     6     7    1
     8     7     8    1
     9     8     9    1
    10     9    10    1
    11    10     5    1
    12     3    11    1
    13     7    12    1
    14     7    13    1
    15     8    14    1
    16     8    15    1
    17     9    16    1
    18     9    17    1
    19    10    18    1
    20    10    19    1
