@<TRIPOS>MOLECULE
*****
 19 20 0 0 0
SMALL
USER_CHARGES

@<TRIPOS>ATOM
      1 Br1         1.6012    5.1938    0.5222 Br      1  LIG1        0.0000
      2 C2          0.5241    3.5902    0.1903 C.2     1  LIG1        0.0000
      3 C3         -0.8246    3.5741    0.0047 C.2     1  LIG1        0.0000
      4 N4         -1.1660    2.2694   -0.1895 N.2     1  LIG1        0.0000
      5 C5         -0.0770    1.5298   -0.1357 C.2     1  LIG1        0.0000
      6 N6          1.0020    2.3134    0.1256 N.pl3   1  LIG1        0.0000
      7 C7          2.3250    1.6764    0.2842 C.3     1  LIG1        0.0000
      8 C8          2.4657    0.2921   -0.3218 C.3     1  LIG1        0.0000
      9 C9          1.3364   -0.5359    0.2632 C.3     1  LIG1        0.0000
     10 C10         0.0552    0.0256   -0.3369 C.3     1  LIG1        0.0000
     11 H          -1.4409    4.3616    0.0099 H       1  LIG1        0.0000
     12 H           2.5159    1.6042    1.2631 H       1  LIG1        0.0000
     13 H           3.0054    2.2704   -0.1451 H       1  LIG1        0.0000
     14 H           3.3504   -0.1056   -0.0787 H       1  LIG1        0.0000
     15 H           2.3833    0.3383   -1.3173 H       1  LIG1        0.0000
     16 H           1.4450   -1.4982    0.0138 H       1  LIG1        0.0000
     17 H           1.3212   -0.4494    1.2593 H       1  LIG1        0.0000
     18 H           0.0497   -0.1678   -1.3180 H       1  LIG1        0.0000
     19 H          -0.7254   -0.4251    0.0961 H       1  LIG1        0.0000
@<TRIPOS>BOND
     1     1     2    1
     2     2     3    2
     3     3     4    1
     4     4     5    2
     5     5     6    1
     6     6     2    1
     7     6     7    1
     8     7     8    1
     9     8     9    1
    10     9    10    1
    11    10     5    1
    12     3    11    1
    13     7    12    1
    14     7    13    1
    15     8    14    1
    16     8    15    1
    17     9    16    1
    18     9    17    1
    19    10    18    1
    20    10    19    1
