@<TRIPOS>MOLECULE
*****
 19 20 0 0 0
SMALL
USER_CHARGES

@<TRIPOS>ATOM
      1 Br1        -4.3138    0.2662   -0.0257 Br      1  LIG1        0.0000
      2 C2         -2.6477   -0.7678   -0.0128 C.2     1  LIG1        0.0000
      3 C3         -2.5610   -2.1243    0.0660 C.2     1  LIG1        0.0000
      4 N4         -1.2338   -2.4296    0.0452 N.2     1  LIG1        0.0000
      5 C5         -0.5409   -1.3116   -0.0271 C.2     1  LIG1        0.0000
      6 N6         -1.3851   -0.2569   -0.0793 N.pl3   1  LIG1        0.0000
      7 C7         -0.8603    1.1125   -0.1699 C.3     1  LIG1        0.0000
      8 C8          0.3607    1.3178    0.7189 C.3     1  LIG1        0.0000
      9 C9          1.2376    0.0833    0.9111 C.3     1  LIG1        0.0000
     10 C10         0.9594   -1.0707   -0.0495 C.3     1  LIG1        0.0000
     11 H          -3.3223   -2.7697    0.1271 H       1  LIG1        0.0000
     12 H          -1.5759    1.7515    0.1123 H       1  LIG1        0.0000
     13 H          -0.6035    1.2974   -1.1186 H       1  LIG1        0.0000
     14 H           0.0420    1.6145    1.6192 H       1  LIG1        0.0000
     15 H           0.9233    2.0368    0.3109 H       1  LIG1        0.0000
     16 H           2.1912    0.3603    0.7933 H       1  LIG1        0.0000
     17 H           1.1004   -0.2510    1.8436 H       1  LIG1        0.0000
     18 H           1.2550   -0.8278   -0.9734 H       1  LIG1        0.0000
     19 H           1.4442   -1.8923    0.2505 H       1  LIG1        0.0000
@<TRIPOS>BOND
     1     1     2    1
     2     2     3    2
     3     3     4    1
     4     4     5    2
     5     5     6    1
     6     6     2    1
     7     6     7    1
     8     7     8    1
     9     8     9    1
    10     9    10    1
    11    10     5    1
    12     3    11    1
    13     7    12    1
    14     7    13    1
    15     8    14    1
    16     8    15    1
    17     9    16    1
    18     9    17    1
    19    10    18    1
    20    10    19    1
