@<TRIPOS>MOLECULE
*****
 19 20 0 0 0
SMALL
USER_CHARGES

@<TRIPOS>ATOM
      1 Br1        -3.8516    0.6223   -1.2913 Br      1  LIG1        0.0000
      2 C2         -2.2712   -0.4730   -0.9035 C.2     1  LIG1        0.0000
      3 C3         -2.0601   -1.7475   -1.3360 C.2     1  LIG1        0.0000
      4 N4         -0.8494   -2.1228   -0.8414 N.2     1  LIG1        0.0000
      5 C5         -0.3203   -1.1391   -0.1536 C.2     1  LIG1        0.0000
      6 N6         -1.1916   -0.0979   -0.1629 N.pl3   1  LIG1        0.0000
      7 C7         -0.8154    1.1333    0.5493 C.3     1  LIG1        0.0000
      8 C8          0.6379    1.4870    0.2493 C.3     1  LIG1        0.0000
      9 C9          1.6264    0.3203    0.2694 C.3     1  LIG1        0.0000
     10 C10         1.0194   -1.0502    0.5607 C.3     1  LIG1        0.0000
     11 H          -2.6727   -2.2975   -1.9037 H       1  LIG1        0.0000
     12 H          -0.9257    0.9934    1.5333 H       1  LIG1        0.0000
     13 H          -1.4068    1.8823    0.2507 H       1  LIG1        0.0000
     14 H           0.9378    2.1546    0.9308 H       1  LIG1        0.0000
     15 H           0.6711    1.9012   -0.6602 H       1  LIG1        0.0000
     16 H           2.0701    0.2768   -0.6257 H       1  LIG1        0.0000
     17 H           2.3120    0.5094    0.9724 H       1  LIG1        0.0000
     18 H           1.6295   -1.7685    0.2263 H       1  LIG1        0.0000
     19 H           0.8855   -1.1585    1.5458 H       1  LIG1        0.0000
@<TRIPOS>BOND
     1     1     2    1
     2     2     3    2
     3     3     4    1
     4     4     5    2
     5     5     6    1
     6     6     2    1
     7     6     7    1
     8     7     8    1
     9     8     9    1
    10     9    10    1
    11    10     5    1
    12     3    11    1
    13     7    12    1
    14     7    13    1
    15     8    14    1
    16     8    15    1
    17     9    16    1
    18     9    17    1
    19    10    18    1
    20    10    19    1
