@<TRIPOS>MOLECULE

  28   29
SMALL
USER_CHARGES
@<TRIPOS>ATOM
   1 C1           2.5541    -2.8715    -0.0332 C.3          1    LIG   0.0000
   2 C2           1.2280    -2.1288    -0.0173 C.2          1    LIG   0.0000
   3 O3           0.1968    -2.7423    -0.0100 O.2          1    LIG   0.0000
   4 C4           1.2092    -0.6795    -0.0108 C.ar         1    LIG   0.0000
   5 C5          -0.0136    -0.0173     0.0038 C.ar         1    LIG   0.0000
   6 C6          -0.0200     1.3733     0.0104 C.ar         1    LIG   0.0000
   7 F7          -1.1774     2.0273     0.0241 F            1    LIG   0.0000
   8 C8           1.1677     2.0970     0.0030 C.ar         1    LIG   0.0000
   9 O9           1.1574     3.4470     0.0095 O.3          1    LIG  -1.0000
  10 C10          2.3775     1.4110    -0.0124 C.ar         1    LIG   0.0000
  11 N11          3.5801     2.1272    -0.0211 N.am         1    LIG   0.0000
  12 C12          4.7002     1.5921     0.5584 C.2          1    LIG   0.0000
  13 O13          4.6504     0.5094     1.0735 O.2          1    LIG   0.0000
  14 C14          5.9460     2.3340     0.5493 C.2          1    LIG   0.0000
  15 C15          6.1250     3.5668    -0.0026 C.2          1    LIG   0.0000
  16 N16          7.4343     3.8728     0.2196 N.2          1    LIG   0.0000
  17 C17          8.0373     2.9004     0.8659 C.2          1    LIG   0.0000
  18 N18          7.1244     1.9122     1.0900 N.pl3        1    LIG   0.0000
  19 C19          2.4108     0.0205    -0.0189 C.ar         1    LIG   0.0000
  20 H            7.2880     1.0451     1.5603 H            1    LIG   0.0000
  21 H            3.3056    -2.2118    -0.0375 H            1    LIG   0.0000
  22 H            2.6224    -3.4492     0.7802 H            1    LIG   0.0000
  23 H            2.6068    -3.4421    -0.8527 H            1    LIG   0.0000
  24 H           -0.8715    -0.5310     0.0094 H            1    LIG   0.0000
  25 H            3.6216     3.0294    -0.4503 H            1    LIG   0.0000
  26 H            5.4417     4.1272    -0.4706 H            1    LIG   0.0000
  27 H            8.9975     2.8873     1.1447 H            1    LIG   0.0000
  28 H            3.2837    -0.4674    -0.0292 H            1    LIG   0.0000
@<TRIPOS>BOND
   1        1        2 1
   2        2        3 2
   3        2        4 1
   4        4        5 ar
   5        5        6 ar
   6        6        7 1
   7        6        8 ar
   8        8        9 1
   9        8       10 ar
  10       10       11 1
  11       11       12 am
  12       12       13 2
  13       12       14 1
  14       14       15 2
  15       15       16 1
  16       16       17 2
  17       17       18 1
  18       18       14 1
  19       10       19 ar
  20       19        4 ar
  21       18       20 1
  22        1       21 1
  23        1       22 1
  24        1       23 1
  25        5       24 1
  26       11       25 1
  27       15       26 1
  28       17       27 1
  29       19       28 1

@<TRIPOS>MOLECULE

  28   29
SMALL
USER_CHARGES
@<TRIPOS>ATOM
   1 C1           2.5541    -2.8715    -0.0332 C.3          1    LIG   0.0000
   2 C2           1.2280    -2.1288    -0.0173 C.2          1    LIG   0.0000
   3 O3           0.1968    -2.7423    -0.0100 O.2          1    LIG   0.0000
   4 C4           1.2092    -0.6795    -0.0108 C.ar         1    LIG   0.0000
   5 C5          -0.0136    -0.0173     0.0038 C.ar         1    LIG   0.0000
   6 C6          -0.0200     1.3733     0.0104 C.ar         1    LIG   0.0000
   7 F7          -1.1774     2.0273     0.0241 F            1    LIG   0.0000
   8 C8           1.1677     2.0970     0.0030 C.ar         1    LIG   0.0000
   9 O9           1.1574     3.4470     0.0095 O.3          1    LIG  -1.0000
  10 C10          2.3775     1.4110    -0.0124 C.ar         1    LIG   0.0000
  11 N11          3.5801     2.1272    -0.0211 N.am         1    LIG   0.0000
  12 C12          4.7002     1.5921     0.5584 C.2          1    LIG   0.0000
  13 O13          4.6504     0.5094     1.0735 O.2          1    LIG   0.0000
  14 C14          5.9460     2.3340     0.5493 C.2          1    LIG   0.0000
  15 C15          7.1211     1.9076     1.0914 C.2          1    LIG   0.0000
  16 N16          8.0114     2.9116     0.8532 N.2          1    LIG   0.0000
  17 C17          7.4367     3.9008     0.2067 C.2          1    LIG   0.0000
  18 N18          6.1307     3.5676    -0.0012 N.pl3        1    LIG   0.0000
  19 C19          2.4108     0.0205    -0.0189 C.ar         1    LIG   0.0000
  20 H            5.4411     4.1215    -0.4678 H            1    LIG   0.0000
  21 H            3.3056    -2.2118    -0.0375 H            1    LIG   0.0000
  22 H            2.6224    -3.4492     0.7802 H            1    LIG   0.0000
  23 H            2.6068    -3.4421    -0.8527 H            1    LIG   0.0000
  24 H           -0.8715    -0.5310     0.0094 H            1    LIG   0.0000
  25 H            3.6216     3.0294    -0.4503 H            1    LIG   0.0000
  26 H            7.2934     1.0429     1.5631 H            1    LIG   0.0000
  27 H            7.8796     4.7495    -0.0823 H            1    LIG   0.0000
  28 H            3.2837    -0.4674    -0.0292 H            1    LIG   0.0000
@<TRIPOS>BOND
   1        1        2 1
   2        2        3 2
   3        2        4 1
   4        4        5 ar
   5        5        6 ar
   6        6        7 1
   7        6        8 ar
   8        8        9 1
   9        8       10 ar
  10       10       11 1
  11       11       12 am
  12       12       13 2
  13       12       14 1
  14       14       15 2
  15       15       16 1
  16       16       17 2
  17       17       18 1
  18       18       14 1
  19       10       19 ar
  20       19        4 ar
  21       18       20 1
  22        1       21 1
  23        1       22 1
  24        1       23 1
  25        5       24 1
  26       11       25 1
  27       15       26 1
  28       17       27 1
  29       19       28 1

@<TRIPOS>MOLECULE

  28   29
SMALL
USER_CHARGES
@<TRIPOS>ATOM
   1 C1           2.5541    -2.8715    -0.0332 C.3          1    LIG   0.0000
   2 C2           1.2280    -2.1288    -0.0173 C.2          1    LIG   0.0000
   3 O3           0.1968    -2.7423    -0.0100 O.2          1    LIG   0.0000
   4 C4           1.2092    -0.6795    -0.0108 C.ar         1    LIG   0.0000
   5 C5          -0.0136    -0.0173     0.0038 C.ar         1    LIG   0.0000
   6 C6          -0.0200     1.3733     0.0104 C.ar         1    LIG   0.0000
   7 F7          -1.1774     2.0273     0.0241 F            1    LIG   0.0000
   8 C8           1.1677     2.0970     0.0030 C.ar         1    LIG   0.0000
   9 O9           1.1574     3.4470     0.0095 O.3          1    LIG  -1.0000
  10 C10          2.3775     1.4110    -0.0124 C.ar         1    LIG   0.0000
  11 N11          3.5801     2.1272    -0.0211 N.am         1    LIG   0.0000
  12 C12          4.6574     1.6656     0.6882 C.2          1    LIG   0.0000
  13 O13          5.6884     2.2796     0.6807 O.2          1    LIG   0.0000
  14 C14          4.5519     0.4351     1.4480 C.2          1    LIG   0.0000
  15 C15          5.3146    -0.6775     1.2560 C.2          1    LIG   0.0000
  16 N16          4.8765    -1.5771     2.1813 N.2          1    LIG   0.0000
  17 C17          3.9057    -1.0664     2.9049 C.2          1    LIG   0.0000
  18 N18          3.6760     0.2047     2.4671 N.pl3        1    LIG   0.0000
  19 C19          2.4108     0.0205    -0.0189 C.ar         1    LIG   0.0000
  20 H            2.9959     0.8446     2.8248 H            1    LIG   0.0000
  21 H            3.3056    -2.2118    -0.0375 H            1    LIG   0.0000
  22 H            2.6224    -3.4492     0.7802 H            1    LIG   0.0000
  23 H            2.6068    -3.4421    -0.8527 H            1    LIG   0.0000
  24 H           -0.8715    -0.5310     0.0094 H            1    LIG   0.0000
  25 H            3.6528     2.9758    -0.5451 H            1    LIG   0.0000
  26 H            6.0406    -0.8064     0.5805 H            1    LIG   0.0000
  27 H            3.4203    -1.5289     3.6469 H            1    LIG   0.0000
  28 H            3.2837    -0.4674    -0.0292 H            1    LIG   0.0000
@<TRIPOS>BOND
   1        1        2 1
   2        2        3 2
   3        2        4 1
   4        4        5 ar
   5        5        6 ar
   6        6        7 1
   7        6        8 ar
   8        8        9 1
   9        8       10 ar
  10       10       11 1
  11       11       12 am
  12       12       13 2
  13       12       14 1
  14       14       15 2
  15       15       16 1
  16       16       17 2
  17       17       18 1
  18       18       14 1
  19       10       19 ar
  20       19        4 ar
  21       18       20 1
  22        1       21 1
  23        1       22 1
  24        1       23 1
  25        5       24 1
  26       11       25 1
  27       15       26 1
  28       17       27 1
  29       19       28 1

@<TRIPOS>MOLECULE

  28   29
SMALL
USER_CHARGES
@<TRIPOS>ATOM
   1 C1           2.5541    -2.8715    -0.0332 C.3          1    LIG   0.0000
   2 C2           1.2280    -2.1288    -0.0173 C.2          1    LIG   0.0000
   3 O3           0.1968    -2.7423    -0.0100 O.2          1    LIG   0.0000
   4 C4           1.2092    -0.6795    -0.0108 C.ar         1    LIG   0.0000
   5 C5          -0.0136    -0.0173     0.0038 C.ar         1    LIG   0.0000
   6 C6          -0.0200     1.3733     0.0104 C.ar         1    LIG   0.0000
   7 F7          -1.1774     2.0273     0.0241 F            1    LIG   0.0000
   8 C8           1.1677     2.0970     0.0030 C.ar         1    LIG   0.0000
   9 O9           1.1574     3.4470     0.0095 O.3          1    LIG  -1.0000
  10 C10          2.3775     1.4110    -0.0124 C.ar         1    LIG   0.0000
  11 N11          3.5801     2.1272    -0.0211 N.am         1    LIG   0.0000
  12 C12          4.6574     1.6656     0.6882 C.2          1    LIG   0.0000
  13 O13          5.6884     2.2796     0.6807 O.2          1    LIG   0.0000
  14 C14          4.5519     0.4351     1.4480 C.2          1    LIG   0.0000
  15 C15          3.6745     0.2102     2.4659 C.2          1    LIG   0.0000
  16 N16          3.9263    -1.0628     2.8821 N.2          1    LIG   0.0000
  17 C17          4.8947    -1.6014     2.1757 C.2          1    LIG   0.0000
  18 N18          5.3123    -0.6809     1.2602 N.pl3        1    LIG   0.0000
  19 C19          2.4108     0.0205    -0.0189 C.ar         1    LIG   0.0000
  20 H            6.0370    -0.8013     0.5817 H            1    LIG   0.0000
  21 H            3.3056    -2.2118    -0.0375 H            1    LIG   0.0000
  22 H            2.6224    -3.4492     0.7802 H            1    LIG   0.0000
  23 H            2.6068    -3.4421    -0.8527 H            1    LIG   0.0000
  24 H           -0.8715    -0.5310     0.0094 H            1    LIG   0.0000
  25 H            3.6528     2.9758    -0.5451 H            1    LIG   0.0000
  26 H            2.9918     0.8438     2.8297 H            1    LIG   0.0000
  27 H            5.2613    -2.5248     2.2896 H            1    LIG   0.0000
  28 H            3.2837    -0.4674    -0.0292 H            1    LIG   0.0000
@<TRIPOS>BOND
   1        1        2 1
   2        2        3 2
   3        2        4 1
   4        4        5 ar
   5        5        6 ar
   6        6        7 1
   7        6        8 ar
   8        8        9 1
   9        8       10 ar
  10       10       11 1
  11       11       12 am
  12       12       13 2
  13       12       14 1
  14       14       15 2
  15       15       16 1
  16       16       17 2
  17       17       18 1
  18       18       14 1
  19       10       19 ar
  20       19        4 ar
  21       18       20 1
  22        1       21 1
  23        1       22 1
  24        1       23 1
  25        5       24 1
  26       11       25 1
  27       15       26 1
  28       17       27 1
  29       19       28 1

@<TRIPOS>MOLECULE

  28   29
SMALL
USER_CHARGES
@<TRIPOS>ATOM
   1 C1           2.5541    -2.8715    -0.0332 C.3          1    LIG   0.0000
   2 C2           1.2280    -2.1288    -0.0173 C.2          1    LIG   0.0000
   3 O3           0.1968    -2.7423    -0.0100 O.2          1    LIG   0.0000
   4 C4           1.2092    -0.6795    -0.0108 C.ar         1    LIG   0.0000
   5 C5          -0.0136    -0.0173     0.0038 C.ar         1    LIG   0.0000
   6 C6          -0.0200     1.3733     0.0104 C.ar         1    LIG   0.0000
   7 F7          -1.1774     2.0273     0.0241 F            1    LIG   0.0000
   8 C8           1.1677     2.0970     0.0030 C.ar         1    LIG   0.0000
   9 O9           1.1574     3.4470     0.0095 O.3          1    LIG  -1.0000
  10 C10          2.3775     1.4110    -0.0124 C.ar         1    LIG   0.0000
  11 N11          3.5801     2.1272    -0.0211 N.am         1    LIG   0.0000
  12 C12          4.5894     1.7608    -0.8720 C.2          1    LIG   0.0000
  13 O13          5.6203     2.3748    -0.8795 O.2          1    LIG   0.0000
  14 C14          4.4118     0.6311    -1.7634 C.2          1    LIG   0.0000
  15 C15          5.1825    -0.4924    -1.7749 C.2          1    LIG   0.0000
  16 N16          4.6609    -1.2754    -2.7609 N.2          1    LIG   0.0000
  17 C17          3.6339    -0.6858    -3.3304 C.2          1    LIG   0.0000
  18 N18          3.4496     0.5214    -2.7232 N.pl3        1    LIG   0.0000
  19 C19          2.4108     0.0205    -0.0189 C.ar         1    LIG   0.0000
  20 H            2.7444     1.1964    -2.9401 H            1    LIG   0.0000
  21 H            3.3056    -2.2118    -0.0375 H            1    LIG   0.0000
  22 H            2.6224    -3.4492     0.7802 H            1    LIG   0.0000
  23 H            2.6068    -3.4421    -0.8527 H            1    LIG   0.0000
  24 H           -0.8715    -0.5310     0.0094 H            1    LIG   0.0000
  25 H            3.7025     2.9063     0.5937 H            1    LIG   0.0000
  26 H            5.9638    -0.6984    -1.1858 H            1    LIG   0.0000
  27 H            3.0836    -1.0572    -4.0782 H            1    LIG   0.0000
  28 H            3.2837    -0.4674    -0.0292 H            1    LIG   0.0000
@<TRIPOS>BOND
   1        1        2 1
   2        2        3 2
   3        2        4 1
   4        4        5 ar
   5        5        6 ar
   6        6        7 1
   7        6        8 ar
   8        8        9 1
   9        8       10 ar
  10       10       11 1
  11       11       12 am
  12       12       13 2
  13       12       14 1
  14       14       15 2
  15       15       16 1
  16       16       17 2
  17       17       18 1
  18       18       14 1
  19       10       19 ar
  20       19        4 ar
  21       18       20 1
  22        1       21 1
  23        1       22 1
  24        1       23 1
  25        5       24 1
  26       11       25 1
  27       15       26 1
  28       17       27 1
  29       19       28 1

@<TRIPOS>MOLECULE

  28   29
SMALL
USER_CHARGES
@<TRIPOS>ATOM
   1 C1           2.5541    -2.8715    -0.0332 C.3          1    LIG   0.0000
   2 C2           1.2280    -2.1288    -0.0173 C.2          1    LIG   0.0000
   3 O3           0.1968    -2.7423    -0.0100 O.2          1    LIG   0.0000
   4 C4           1.2092    -0.6795    -0.0108 C.ar         1    LIG   0.0000
   5 C5          -0.0136    -0.0173     0.0038 C.ar         1    LIG   0.0000
   6 C6          -0.0200     1.3733     0.0104 C.ar         1    LIG   0.0000
   7 F7          -1.1774     2.0273     0.0241 F            1    LIG   0.0000
   8 C8           1.1677     2.0970     0.0030 C.ar         1    LIG   0.0000
   9 O9           1.1574     3.4470     0.0095 O.3          1    LIG  -1.0000
  10 C10          2.3775     1.4110    -0.0124 C.ar         1    LIG   0.0000
  11 N11          3.5801     2.1272    -0.0211 N.am         1    LIG   0.0000
  12 C12          4.5894     1.7608    -0.8720 C.2          1    LIG   0.0000
  13 O13          5.6203     2.3748    -0.8795 O.2          1    LIG   0.0000
  14 C14          4.4118     0.6311    -1.7634 C.2          1    LIG   0.0000
  15 C15          3.4481     0.5267    -2.7210 C.2          1    LIG   0.0000
  16 N16          3.6562    -0.6850    -3.3091 N.2          1    LIG   0.0000
  17 C17          4.6793    -1.3003    -2.7598 C.2          1    LIG   0.0000
  18 N18          5.1797    -0.4954    -1.7792 N.pl3        1    LIG   0.0000
  19 C19          2.4108     0.0205    -0.0189 C.ar         1    LIG   0.0000
  20 H            5.9600    -0.6933    -1.1859 H            1    LIG   0.0000
  21 H            3.3056    -2.2118    -0.0375 H            1    LIG   0.0000
  22 H            2.6224    -3.4492     0.7802 H            1    LIG   0.0000
  23 H            2.6068    -3.4421    -0.8527 H            1    LIG   0.0000
  24 H           -0.8715    -0.5310     0.0094 H            1    LIG   0.0000
  25 H            3.7025     2.9063     0.5937 H            1    LIG   0.0000
  26 H            2.7396     1.1961    -2.9444 H            1    LIG   0.0000
  27 H            5.0295    -2.2012    -3.0161 H            1    LIG   0.0000
  28 H            3.2837    -0.4674    -0.0292 H            1    LIG   0.0000
@<TRIPOS>BOND
   1        1        2 1
   2        2        3 2
   3        2        4 1
   4        4        5 ar
   5        5        6 ar
   6        6        7 1
   7        6        8 ar
   8        8        9 1
   9        8       10 ar
  10       10       11 1
  11       11       12 am
  12       12       13 2
  13       12       14 1
  14       14       15 2
  15       15       16 1
  16       16       17 2
  17       17       18 1
  18       18       14 1
  19       10       19 ar
  20       19        4 ar
  21       18       20 1
  22        1       21 1
  23        1       22 1
  24        1       23 1
  25        5       24 1
  26       11       25 1
  27       15       26 1
  28       17       27 1
  29       19       28 1

@<TRIPOS>MOLECULE

  28   29
SMALL
USER_CHARGES
@<TRIPOS>ATOM
   1 C1          -0.0782    -2.9059    -0.0081 C.3          1    LIG   0.0000
   2 C2           1.2280    -2.1288    -0.0173 C.2          1    LIG   0.0000
   3 O3           2.2750    -2.7151    -0.0298 O.2          1    LIG   0.0000
   4 C4           1.2092    -0.6795    -0.0108 C.ar         1    LIG   0.0000
   5 C5          -0.0136    -0.0173     0.0038 C.ar         1    LIG   0.0000
   6 C6          -0.0200     1.3733     0.0104 C.ar         1    LIG   0.0000
   7 F7          -1.1774     2.0273     0.0241 F            1    LIG   0.0000
   8 C8           1.1677     2.0970     0.0030 C.ar         1    LIG   0.0000
   9 O9           1.1574     3.4470     0.0095 O.3          1    LIG  -1.0000
  10 C10          2.3775     1.4110    -0.0124 C.ar         1    LIG   0.0000
  11 N11          3.5801     2.1272    -0.0211 N.am         1    LIG   0.0000
  12 C12          4.4617     1.9728    -1.0583 C.2          1    LIG   0.0000
  13 O13          4.2030     1.2236    -1.9592 O.2          1    LIG   0.0000
  14 C14          5.7075     2.7147    -1.0673 C.2          1    LIG   0.0000
  15 C15          6.1099     3.5909    -0.1047 C.2          1    LIG   0.0000
  16 N16          7.3253     4.0469    -0.5197 N.2          1    LIG   0.0000
  17 C17          7.6640     3.4962    -1.6637 C.2          1    LIG   0.0000
  18 N18          6.6631     2.6487    -2.0376 N.pl3        1    LIG   0.0000
  19 C19          2.4108     0.0205    -0.0189 C.ar         1    LIG   0.0000
  20 H            6.6353     2.0870    -2.8644 H            1    LIG   0.0000
  21 H           -0.8467    -2.2661     0.0020 H            1    LIG   0.0000
  22 H           -0.1315    -3.4779    -0.8266 H            1    LIG   0.0000
  23 H           -0.1159    -3.4850     0.8063 H            1    LIG   0.0000
  24 H           -0.8715    -0.5310     0.0094 H            1    LIG   0.0000
  25 H            3.7956     2.7515     0.7297 H            1    LIG   0.0000
  26 H            5.6184     3.8452     0.7283 H            1    LIG   0.0000
  27 H            8.5082     3.6685    -2.1714 H            1    LIG   0.0000
  28 H            3.2837    -0.4674    -0.0292 H            1    LIG   0.0000
@<TRIPOS>BOND
   1        1        2 1
   2        2        3 2
   3        2        4 1
   4        4        5 ar
   5        5        6 ar
   6        6        7 1
   7        6        8 ar
   8        8        9 1
   9        8       10 ar
  10       10       11 1
  11       11       12 am
  12       12       13 2
  13       12       14 1
  14       14       15 2
  15       15       16 1
  16       16       17 2
  17       17       18 1
  18       18       14 1
  19       10       19 ar
  20       19        4 ar
  21       18       20 1
  22        1       21 1
  23        1       22 1
  24        1       23 1
  25        5       24 1
  26       11       25 1
  27       15       26 1
  28       17       27 1
  29       19       28 1

@<TRIPOS>MOLECULE

  28   29
SMALL
USER_CHARGES
@<TRIPOS>ATOM
   1 C1           2.5541    -2.8715    -0.0332 C.3          1    LIG   0.0000
   2 C2           1.2280    -2.1288    -0.0173 C.2          1    LIG   0.0000
   3 O3           0.1968    -2.7423    -0.0100 O.2          1    LIG   0.0000
   4 C4           1.2092    -0.6795    -0.0108 C.ar         1    LIG   0.0000
   5 C5          -0.0136    -0.0173     0.0038 C.ar         1    LIG   0.0000
   6 C6          -0.0200     1.3733     0.0104 C.ar         1    LIG   0.0000
   7 F7          -1.1774     2.0273     0.0241 F            1    LIG   0.0000
   8 C8           1.1677     2.0970     0.0030 C.ar         1    LIG   0.0000
   9 O9           1.1574     3.4470     0.0095 O.3          1    LIG  -1.0000
  10 C10          2.3775     1.4110    -0.0124 C.ar         1    LIG   0.0000
  11 N11          3.5801     2.1272    -0.0211 N.am         1    LIG   0.0000
  12 C12          4.4617     1.9728    -1.0583 C.2          1    LIG   0.0000
  13 O13          4.2030     1.2236    -1.9592 O.2          1    LIG   0.0000
  14 C14          5.7075     2.7147    -1.0673 C.2          1    LIG   0.0000
  15 C15          6.6592     2.6449    -2.0398 C.2          1    LIG   0.0000
  16 N16          7.6435     3.4989    -1.6408 N.2          1    LIG   0.0000
  17 C17          7.3330     4.0664    -0.4969 C.2          1    LIG   0.0000
  18 N18          6.1151     3.5925    -0.1069 N.pl3        1    LIG   0.0000
  19 C19          2.4108     0.0205    -0.0189 C.ar         1    LIG   0.0000
  20 H            5.6168     3.8410     0.7237 H            1    LIG   0.0000
  21 H            3.3056    -2.2118    -0.0375 H            1    LIG   0.0000
  22 H            2.6224    -3.4492     0.7802 H            1    LIG   0.0000
  23 H            2.6068    -3.4421    -0.8527 H            1    LIG   0.0000
  24 H           -0.8715    -0.5310     0.0094 H            1    LIG   0.0000
  25 H            3.7956     2.7515     0.7297 H            1    LIG   0.0000
  26 H            6.6397     2.0863    -2.8690 H            1    LIG   0.0000
  27 H            7.8920     4.7297     0.0005 H            1    LIG   0.0000
  28 H            3.2837    -0.4674    -0.0292 H            1    LIG   0.0000
@<TRIPOS>BOND
   1        1        2 1
   2        2        3 2
   3        2        4 1
   4        4        5 ar
   5        5        6 ar
   6        6        7 1
   7        6        8 ar
   8        8        9 1
   9        8       10 ar
  10       10       11 1
  11       11       12 am
  12       12       13 2
  13       12       14 1
  14       14       15 2
  15       15       16 1
  16       16       17 2
  17       17       18 1
  18       18       14 1
  19       10       19 ar
  20       19        4 ar
  21       18       20 1
  22        1       21 1
  23        1       22 1
  24        1       23 1
  25        5       24 1
  26       11       25 1
  27       15       26 1
  28       17       27 1
  29       19       28 1

@<TRIPOS>MOLECULE

  28   29
SMALL
USER_CHARGES
@<TRIPOS>ATOM
   1 C1          -0.0782    -2.9059    -0.0081 C.3          1    LIG   0.0000
   2 C2           1.2280    -2.1288    -0.0173 C.2          1    LIG   0.0000
   3 O3           2.2750    -2.7151    -0.0298 O.2          1    LIG   0.0000
   4 C4           1.2092    -0.6795    -0.0108 C.ar         1    LIG   0.0000
   5 C5          -0.0136    -0.0173     0.0038 C.ar         1    LIG   0.0000
   6 C6          -0.0200     1.3733     0.0104 C.ar         1    LIG   0.0000
   7 F7          -1.1774     2.0273     0.0241 F            1    LIG   0.0000
   8 C8           1.1677     2.0970     0.0030 C.ar         1    LIG   0.0000
   9 O9           1.1574     3.4470     0.0095 O.3          1    LIG  -1.0000
  10 C10          2.3775     1.4110    -0.0124 C.ar         1    LIG   0.0000
  11 N11          3.5801     2.1272    -0.0211 N.am         1    LIG   0.0000
  12 C12          4.3142     2.2192    -1.1742 C.2          1    LIG   0.0000
  13 O13          5.3451     2.8332    -1.1817 O.2          1    LIG   0.0000
  14 C14          3.8454     1.5747    -2.3854 C.2          1    LIG   0.0000
  15 C15          3.5599     2.2101    -3.5564 C.2          1    LIG   0.0000
  16 N16          3.1590     1.2264    -4.4102 N.2          1    LIG   0.0000
  17 C17          3.1897     0.0538    -3.8178 C.2          1    LIG   0.0000
  18 N18          3.6194     0.2386    -2.5367 N.pl3        1    LIG   0.0000
  19 C19          2.4108     0.0205    -0.0189 C.ar         1    LIG   0.0000
  20 H            3.7446    -0.4696    -1.8419 H            1    LIG   0.0000
  21 H           -0.8467    -2.2661     0.0020 H            1    LIG   0.0000
  22 H           -0.1315    -3.4779    -0.8266 H            1    LIG   0.0000
  23 H           -0.1159    -3.4850     0.8063 H            1    LIG   0.0000
  24 H           -0.8715    -0.5310     0.0094 H            1    LIG   0.0000
  25 H            3.9034     2.5717     0.8143 H            1    LIG   0.0000
  26 H            3.6296     3.1890    -3.7483 H            1    LIG   0.0000
  27 H            2.9414    -0.8211    -4.2337 H            1    LIG   0.0000
  28 H            3.2837    -0.4674    -0.0292 H            1    LIG   0.0000
@<TRIPOS>BOND
   1        1        2 1
   2        2        3 2
   3        2        4 1
   4        4        5 ar
   5        5        6 ar
   6        6        7 1
   7        6        8 ar
   8        8        9 1
   9        8       10 ar
  10       10       11 1
  11       11       12 am
  12       12       13 2
  13       12       14 1
  14       14       15 2
  15       15       16 1
  16       16       17 2
  17       17       18 1
  18       18       14 1
  19       10       19 ar
  20       19        4 ar
  21       18       20 1
  22        1       21 1
  23        1       22 1
  24        1       23 1
  25        5       24 1
  26       11       25 1
  27       15       26 1
  28       17       27 1
  29       19       28 1

@<TRIPOS>MOLECULE

  28   29
SMALL
USER_CHARGES
@<TRIPOS>ATOM
   1 C1          -0.0782    -2.9059    -0.0081 C.3          1    LIG   0.0000
   2 C2           1.2280    -2.1288    -0.0173 C.2          1    LIG   0.0000
   3 O3           2.2750    -2.7151    -0.0298 O.2          1    LIG   0.0000
   4 C4           1.2092    -0.6795    -0.0108 C.ar         1    LIG   0.0000
   5 C5          -0.0136    -0.0173     0.0038 C.ar         1    LIG   0.0000
   6 C6          -0.0200     1.3733     0.0104 C.ar         1    LIG   0.0000
   7 F7          -1.1774     2.0273     0.0241 F            1    LIG   0.0000
   8 C8           1.1677     2.0970     0.0030 C.ar         1    LIG   0.0000
   9 O9           1.1574     3.4470     0.0095 O.3          1    LIG  -1.0000
  10 C10          2.3775     1.4110    -0.0124 C.ar         1    LIG   0.0000
  11 N11          3.5801     2.1272    -0.0211 N.am         1    LIG   0.0000
  12 C12          4.3142     2.2192    -1.1742 C.2          1    LIG   0.0000
  13 O13          5.3451     2.8332    -1.1817 O.2          1    LIG   0.0000
  14 C14          3.8454     1.5747    -2.3854 C.2          1    LIG   0.0000
  15 C15          3.6212     0.2387    -2.5312 C.2          1    LIG   0.0000
  16 N16          3.1944     0.0843    -3.8162 N.2          1    LIG   0.0000
  17 C17          3.1530     1.2423    -4.4360 C.2          1    LIG   0.0000
  18 N18          3.5583     2.2055    -3.5596 N.pl3        1    LIG   0.0000
  19 C19          2.4108     0.0205    -0.0189 C.ar         1    LIG   0.0000
  20 H            3.6311     3.1858    -3.7430 H            1    LIG   0.0000
  21 H           -0.8467    -2.2661     0.0020 H            1    LIG   0.0000
  22 H           -0.1315    -3.4779    -0.8266 H            1    LIG   0.0000
  23 H           -0.1159    -3.4850     0.8063 H            1    LIG   0.0000
  24 H           -0.8715    -0.5310     0.0094 H            1    LIG   0.0000
  25 H            3.9034     2.5717     0.8143 H            1    LIG   0.0000
  26 H            3.7438    -0.4759    -1.8424 H            1    LIG   0.0000
  27 H            2.8732     1.3913    -5.3845 H            1    LIG   0.0000
  28 H            3.2837    -0.4674    -0.0292 H            1    LIG   0.0000
@<TRIPOS>BOND
   1        1        2 1
   2        2        3 2
   3        2        4 1
   4        4        5 ar
   5        5        6 ar
   6        6        7 1
   7        6        8 ar
   8        8        9 1
   9        8       10 ar
  10       10       11 1
  11       11       12 am
  12       12       13 2
  13       12       14 1
  14       14       15 2
  15       15       16 1
  16       16       17 2
  17       17       18 1
  18       18       14 1
  19       10       19 ar
  20       19        4 ar
  21       18       20 1
  22        1       21 1
  23        1       22 1
  24        1       23 1
  25        5       24 1
  26       11       25 1
  27       15       26 1
  28       17       27 1
  29       19       28 1

@<TRIPOS>MOLECULE

  28   29
SMALL
USER_CHARGES
@<TRIPOS>ATOM
   1 C1           2.5541    -2.8715    -0.0332 C.3          1    LIG   0.0000
   2 C2           1.2280    -2.1288    -0.0173 C.2          1    LIG   0.0000
   3 O3           0.1968    -2.7423    -0.0100 O.2          1    LIG   0.0000
   4 C4           1.2092    -0.6795    -0.0108 C.ar         1    LIG   0.0000
   5 C5          -0.0136    -0.0173     0.0038 C.ar         1    LIG   0.0000
   6 C6          -0.0200     1.3733     0.0104 C.ar         1    LIG   0.0000
   7 F7          -1.1774     2.0273     0.0241 F            1    LIG   0.0000
   8 C8           1.1677     2.0970     0.0030 C.ar         1    LIG   0.0000
   9 O9           1.1574     3.4470     0.0095 O.3          1    LIG  -1.0000
  10 C10          2.3775     1.4110    -0.0124 C.ar         1    LIG   0.0000
  11 N11          3.5801     2.1272    -0.0211 N.am         1    LIG   0.0000
  12 C12          3.8547     2.9921    -1.0474 C.2          1    LIG   0.0000
  13 O13          3.0644     3.1358    -1.9388 O.2          1    LIG   0.0000
  14 C14          5.1005     3.7340    -1.0564 C.2          1    LIG   0.0000
  15 C15          6.0715     3.6554    -0.1039 C.2          1    LIG   0.0000
  16 N16          7.0477     4.5130    -0.5147 N.2          1    LIG   0.0000
  17 C17          6.7142     5.0913    -1.6466 C.2          1    LIG   0.0000
  18 N18          5.4888     4.6208    -2.0166 N.pl3        1    LIG   0.0000
  19 C19          2.4108     0.0205    -0.0189 C.ar         1    LIG   0.0000
  20 H            4.9740     4.8769    -2.8347 H            1    LIG   0.0000
  21 H            3.3056    -2.2118    -0.0375 H            1    LIG   0.0000
  22 H            2.6224    -3.4492     0.7802 H            1    LIG   0.0000
  23 H            2.6068    -3.4421    -0.8527 H            1    LIG   0.0000
  24 H           -0.8715    -0.5310     0.0094 H            1    LIG   0.0000
  25 H            4.2387     2.0075     0.7218 H            1    LIG   0.0000
  26 H            6.0685     3.0893     0.7204 H            1    LIG   0.0000
  27 H            7.2630     5.7596    -2.1489 H            1    LIG   0.0000
  28 H            3.2837    -0.4674    -0.0292 H            1    LIG   0.0000
@<TRIPOS>BOND
   1        1        2 1
   2        2        3 2
   3        2        4 1
   4        4        5 ar
   5        5        6 ar
   6        6        7 1
   7        6        8 ar
   8        8        9 1
   9        8       10 ar
  10       10       11 1
  11       11       12 am
  12       12       13 2
  13       12       14 1
  14       14       15 2
  15       15       16 1
  16       16       17 2
  17       17       18 1
  18       18       14 1
  19       10       19 ar
  20       19        4 ar
  21       18       20 1
  22        1       21 1
  23        1       22 1
  24        1       23 1
  25        5       24 1
  26       11       25 1
  27       15       26 1
  28       17       27 1
  29       19       28 1

@<TRIPOS>MOLECULE

  28   29
SMALL
USER_CHARGES
@<TRIPOS>ATOM
   1 C1          -0.0782    -2.9059    -0.0081 C.3          1    LIG   0.0000
   2 C2           1.2280    -2.1288    -0.0173 C.2          1    LIG   0.0000
   3 O3           2.2750    -2.7151    -0.0298 O.2          1    LIG   0.0000
   4 C4           1.2092    -0.6795    -0.0108 C.ar         1    LIG   0.0000
   5 C5          -0.0136    -0.0173     0.0038 C.ar         1    LIG   0.0000
   6 C6          -0.0200     1.3733     0.0104 C.ar         1    LIG   0.0000
   7 F7          -1.1774     2.0273     0.0241 F            1    LIG   0.0000
   8 C8           1.1677     2.0970     0.0030 C.ar         1    LIG   0.0000
   9 O9           1.1574     3.4470     0.0095 O.3          1    LIG  -1.0000
  10 C10          2.3775     1.4110    -0.0124 C.ar         1    LIG   0.0000
  11 N11          3.5801     2.1272    -0.0211 N.am         1    LIG   0.0000
  12 C12          3.8547     2.9921    -1.0474 C.2          1    LIG   0.0000
  13 O13          3.0644     3.1358    -1.9388 O.2          1    LIG   0.0000
  14 C14          5.1005     3.7340    -1.0564 C.2          1    LIG   0.0000
  15 C15          5.4836     4.6192    -2.0188 C.2          1    LIG   0.0000
  16 N16          6.7071     5.0715    -1.6240 N.2          1    LIG   0.0000
  17 C17          7.0688     4.5100    -0.4923 C.2          1    LIG   0.0000
  18 N18          6.0754     3.6591    -0.1062 N.pl3        1    LIG   0.0000
  19 C19          2.4108     0.0205    -0.0189 C.ar         1    LIG   0.0000
  20 H            6.0642     3.0897     0.7157 H            1    LIG   0.0000
  21 H           -0.8467    -2.2661     0.0020 H            1    LIG   0.0000
  22 H           -0.1315    -3.4779    -0.8266 H            1    LIG   0.0000
  23 H           -0.1159    -3.4850     0.8063 H            1    LIG   0.0000
  24 H           -0.8715    -0.5310     0.0094 H            1    LIG   0.0000
  25 H            4.2387     2.0075     0.7218 H            1    LIG   0.0000
  26 H            4.9756     4.8809    -2.8395 H            1    LIG   0.0000
  27 H            7.9231     4.6774    -0.0002 H            1    LIG   0.0000
  28 H            3.2837    -0.4674    -0.0292 H            1    LIG   0.0000
@<TRIPOS>BOND
   1        1        2 1
   2        2        3 2
   3        2        4 1
   4        4        5 ar
   5        5        6 ar
   6        6        7 1
   7        6        8 ar
   8        8        9 1
   9        8       10 ar
  10       10       11 1
  11       11       12 am
  12       12       13 2
  13       12       14 1
  14       14       15 2
  15       15       16 1
  16       16       17 2
  17       17       18 1
  18       18       14 1
  19       10       19 ar
  20       19        4 ar
  21       18       20 1
  22        1       21 1
  23        1       22 1
  24        1       23 1
  25        5       24 1
  26       11       25 1
  27       15       26 1
  28       17       27 1
  29       19       28 1

@<TRIPOS>MOLECULE

  28   29
SMALL
USER_CHARGES
@<TRIPOS>ATOM
   1 C1           2.5541    -2.8715    -0.0332 C.3          1    LIG   0.0000
   2 C2           1.2280    -2.1288    -0.0173 C.2          1    LIG   0.0000
   3 O3           0.1968    -2.7423    -0.0100 O.2          1    LIG   0.0000
   4 C4           1.2092    -0.6795    -0.0108 C.ar         1    LIG   0.0000
   5 C5          -0.0136    -0.0173     0.0038 C.ar         1    LIG   0.0000
   6 C6          -0.0200     1.3733     0.0104 C.ar         1    LIG   0.0000
   7 F7          -1.1774     2.0273     0.0241 F            1    LIG   0.0000
   8 C8           1.1677     2.0970     0.0030 C.ar         1    LIG   0.0000
   9 O9           1.1574     3.4470     0.0095 O.3          1    LIG  -1.0000
  10 C10          2.3775     1.4110    -0.0124 C.ar         1    LIG   0.0000
  11 N11          3.5801     2.1272    -0.0211 N.am         1    LIG   0.0000
  12 C12          3.8547     2.9921    -1.0474 C.2          1    LIG   0.0000
  13 O13          4.8857     3.6061    -1.0549 O.2          1    LIG   0.0000
  14 C14          2.8997     3.1657    -2.1245 C.2          1    LIG   0.0000
  15 C15          3.0606     3.9936    -3.1946 C.2          1    LIG   0.0000
  16 N16          1.9314     3.8382    -3.9417 N.2          1    LIG   0.0000
  17 C17          1.1167     2.9731    -3.3808 C.2          1    LIG   0.0000
  18 N18          1.6988     2.5289    -2.2302 N.pl3        1    LIG   0.0000
  19 C19          2.4108     0.0205    -0.0189 C.ar         1    LIG   0.0000
  20 H            1.3180     1.8640    -1.5877 H            1    LIG   0.0000
  21 H            3.3056    -2.2118    -0.0375 H            1    LIG   0.0000
  22 H            2.6224    -3.4492     0.7802 H            1    LIG   0.0000
  23 H            2.6068    -3.4421    -0.8527 H            1    LIG   0.0000
  24 H           -0.8715    -0.5310     0.0094 H            1    LIG   0.0000
  25 H            4.2387     2.0075     0.7218 H            1    LIG   0.0000
  26 H            3.8405     4.5882    -3.3900 H            1    LIG   0.0000
  27 H            0.2256     2.6900    -3.7356 H            1    LIG   0.0000
  28 H            3.2837    -0.4674    -0.0292 H            1    LIG   0.0000
@<TRIPOS>BOND
   1        1        2 1
   2        2        3 2
   3        2        4 1
   4        4        5 ar
   5        5        6 ar
   6        6        7 1
   7        6        8 ar
   8        8        9 1
   9        8       10 ar
  10       10       11 1
  11       11       12 am
  12       12       13 2
  13       12       14 1
  14       14       15 2
  15       15       16 1
  16       16       17 2
  17       17       18 1
  18       18       14 1
  19       10       19 ar
  20       19        4 ar
  21       18       20 1
  22        1       21 1
  23        1       22 1
  24        1       23 1
  25        5       24 1
  26       11       25 1
  27       15       26 1
  28       17       27 1
  29       19       28 1

@<TRIPOS>MOLECULE

  28   29
SMALL
USER_CHARGES
@<TRIPOS>ATOM
   1 C1           2.5541    -2.8715    -0.0332 C.3          1    LIG   0.0000
   2 C2           1.2280    -2.1288    -0.0173 C.2          1    LIG   0.0000
   3 O3           0.1968    -2.7423    -0.0100 O.2          1    LIG   0.0000
   4 C4           1.2092    -0.6795    -0.0108 C.ar         1    LIG   0.0000
   5 C5          -0.0136    -0.0173     0.0038 C.ar         1    LIG   0.0000
   6 C6          -0.0200     1.3733     0.0104 C.ar         1    LIG   0.0000
   7 F7          -1.1774     2.0273     0.0241 F            1    LIG   0.0000
   8 C8           1.1677     2.0970     0.0030 C.ar         1    LIG   0.0000
   9 O9           1.1574     3.4470     0.0095 O.3          1    LIG  -1.0000
  10 C10          2.3775     1.4110    -0.0124 C.ar         1    LIG   0.0000
  11 N11          3.5801     2.1272    -0.0211 N.am         1    LIG   0.0000
  12 C12          4.1566     2.4832    -1.2118 C.2          1    LIG   0.0000
  13 O13          5.1876     3.0972    -1.2193 O.2          1    LIG   0.0000
  14 C14          3.5211     2.1181    -2.4629 C.2          1    LIG   0.0000
  15 C15          2.3544     1.4245    -2.5811 C.2          1    LIG   0.0000
  16 N16          2.1388     1.3106    -3.9220 N.2          1    LIG   0.0000
  17 C17          3.1027     1.8917    -4.6002 C.2          1    LIG   0.0000
  18 N18          3.9929     2.4123    -3.7078 N.pl3        1    LIG   0.0000
  19 C19          2.4108     0.0205    -0.0189 C.ar         1    LIG   0.0000
  20 H            4.8306     2.9135    -3.9248 H            1    LIG   0.0000
  21 H            3.3056    -2.2118    -0.0375 H            1    LIG   0.0000
  22 H            2.6224    -3.4492     0.7802 H            1    LIG   0.0000
  23 H            2.6068    -3.4421    -0.8527 H            1    LIG   0.0000
  24 H           -0.8715    -0.5310     0.0094 H            1    LIG   0.0000
  25 H            4.0183     2.3789     0.8417 H            1    LIG   0.0000
  26 H            1.7792     1.0740    -1.8420 H            1    LIG   0.0000
  27 H            3.1715     1.9431    -5.5965 H            1    LIG   0.0000
  28 H            3.2837    -0.4674    -0.0292 H            1    LIG   0.0000
@<TRIPOS>BOND
   1        1        2 1
   2        2        3 2
   3        2        4 1
   4        4        5 ar
   5        5        6 ar
   6        6        7 1
   7        6        8 ar
   8        8        9 1
   9        8       10 ar
  10       10       11 1
  11       11       12 am
  12       12       13 2
  13       12       14 1
  14       14       15 2
  15       15       16 1
  16       16       17 2
  17       17       18 1
  18       18       14 1
  19       10       19 ar
  20       19        4 ar
  21       18       20 1
  22        1       21 1
  23        1       22 1
  24        1       23 1
  25        5       24 1
  26       11       25 1
  27       15       26 1
  28       17       27 1
  29       19       28 1

