@<TRIPOS>MOLECULE
*****
 28 29 0 0 0
SMALL
USER_CHARGES

@<TRIPOS>ATOM
      1 C1         -0.0782   -2.9059   -0.0081 C.3     1  LIG1        0.0000
      2 C2          1.2280   -2.1288   -0.0173 C.2     1  LIG1        0.0000
      3 O3          2.2750   -2.7151   -0.0298 O.2     1  LIG1        0.0000
      4 C4          1.2092   -0.6795   -0.0108 C.3     1  LIG1        0.0000
      5 C5         -0.0136   -0.0173    0.0038 C.3     1  LIG1        0.0000
      6 C6         -0.0200    1.3733    0.0104 C.3     1  LIG1        0.0000
      7 F7         -1.1774    2.0273    0.0241 F       1  LIG1        0.0000
      8 C8          1.1677    2.0970    0.0030 C.3     1  LIG1        0.0000
      9 O9          1.1574    3.4470    0.0095 O.2     1  LIG1       -1.0000
     10 C10         2.3775    1.4110   -0.0124 C.3     1  LIG1        0.0000
     11 N11         3.5801    2.1272   -0.0211 N.am    1  LIG1        0.0000
     12 C12         4.3142    2.2192   -1.1742 C.2     1  LIG1        0.0000
     13 O13         5.3451    2.8332   -1.1817 O.2     1  LIG1        0.0000
     14 C14         3.8454    1.5747   -2.3854 C.2     1  LIG1        0.0000
     15 C15         3.5599    2.2101   -3.5564 C.2     1  LIG1        0.0000
     16 N16         3.1590    1.2264   -4.4102 N.2     1  LIG1        0.0000
     17 C17         3.1897    0.0538   -3.8178 C.2     1  LIG1        0.0000
     18 N18         3.6194    0.2386   -2.5367 N.pl3   1  LIG1        0.0000
     19 C19         2.4108    0.0205   -0.0189 C.3     1  LIG1        0.0000
     20 H           3.7446   -0.4696   -1.8419 H       1  LIG1        0.0000
     21 H          -0.8467   -2.2661    0.0020 H       1  LIG1        0.0000
     22 H          -0.1315   -3.4779   -0.8266 H       1  LIG1        0.0000
     23 H          -0.1159   -3.4850    0.8063 H       1  LIG1        0.0000
     24 H          -0.8715   -0.5310    0.0094 H       1  LIG1        0.0000
     25 H           3.9034    2.5717    0.8143 H       1  LIG1        0.0000
     26 H           3.6296    3.1890   -3.7483 H       1  LIG1        0.0000
     27 H           2.9414   -0.8211   -4.2337 H       1  LIG1        0.0000
     28 H           3.2837   -0.4674   -0.0292 H       1  LIG1        0.0000
@<TRIPOS>UNITY_ATOM_ATTR
9 1
charge -1
@<TRIPOS>BOND
     1     1     2    1
     2     2     3    2
     3     2     4    1
     4     4     5   ar
     5     5     6   ar
     6     6     7    1
     7     6     8   ar
     8     8     9    1
     9     8    10   ar
    10    10    11    1
    11    11    12   am
    12    12    13    2
    13    12    14    1
    14    14    15    2
    15    15    16    1
    16    16    17    2
    17    17    18    1
    18    18    14    1
    19    10    19   ar
    20    19     4   ar
    21    18    20    1
    22     1    21    1
    23     1    22    1
    24     1    23    1
    25     5    24    1
    26    11    25    1
    27    15    26    1
    28    17    27    1
    29    19    28    1
