@<TRIPOS>MOLECULE
*****
 28 29 0 0 0
SMALL
USER_CHARGES

@<TRIPOS>ATOM
      1 C1          2.5541   -2.8715   -0.0332 C.3     1  LIG1        0.0000
      2 C2          1.2280   -2.1288   -0.0173 C.2     1  LIG1        0.0000
      3 O3          0.1968   -2.7423   -0.0100 O.2     1  LIG1        0.0000
      4 C4          1.2092   -0.6795   -0.0108 C.3     1  LIG1        0.0000
      5 C5         -0.0136   -0.0173    0.0038 C.3     1  LIG1        0.0000
      6 C6         -0.0200    1.3733    0.0104 C.3     1  LIG1        0.0000
      7 F7         -1.1774    2.0273    0.0241 F       1  LIG1        0.0000
      8 C8          1.1677    2.0970    0.0030 C.3     1  LIG1        0.0000
      9 O9          1.1574    3.4470    0.0095 O.2     1  LIG1       -1.0000
     10 C10         2.3775    1.4110   -0.0124 C.3     1  LIG1        0.0000
     11 N11         3.5801    2.1272   -0.0211 N.am    1  LIG1        0.0000
     12 C12         3.8547    2.9921   -1.0474 C.2     1  LIG1        0.0000
     13 O13         3.0644    3.1358   -1.9388 O.2     1  LIG1        0.0000
     14 C14         5.1005    3.7340   -1.0564 C.2     1  LIG1        0.0000
     15 C15         6.0715    3.6554   -0.1039 C.2     1  LIG1        0.0000
     16 N16         7.0477    4.5130   -0.5147 N.2     1  LIG1        0.0000
     17 C17         6.7142    5.0913   -1.6466 C.2     1  LIG1        0.0000
     18 N18         5.4888    4.6208   -2.0166 N.pl3   1  LIG1        0.0000
     19 C19         2.4108    0.0205   -0.0189 C.3     1  LIG1        0.0000
     20 H           4.9740    4.8769   -2.8347 H       1  LIG1        0.0000
     21 H           3.3056   -2.2118   -0.0375 H       1  LIG1        0.0000
     22 H           2.6224   -3.4492    0.7802 H       1  LIG1        0.0000
     23 H           2.6068   -3.4421   -0.8527 H       1  LIG1        0.0000
     24 H          -0.8715   -0.5310    0.0094 H       1  LIG1        0.0000
     25 H           4.2387    2.0075    0.7218 H       1  LIG1        0.0000
     26 H           6.0685    3.0893    0.7204 H       1  LIG1        0.0000
     27 H           7.2630    5.7596   -2.1489 H       1  LIG1        0.0000
     28 H           3.2837   -0.4674   -0.0292 H       1  LIG1        0.0000
@<TRIPOS>UNITY_ATOM_ATTR
9 1
charge -1
@<TRIPOS>BOND
     1     1     2    1
     2     2     3    2
     3     2     4    1
     4     4     5   ar
     5     5     6   ar
     6     6     7    1
     7     6     8   ar
     8     8     9    1
     9     8    10   ar
    10    10    11    1
    11    11    12   am
    12    12    13    2
    13    12    14    1
    14    14    15    2
    15    15    16    1
    16    16    17    2
    17    17    18    1
    18    18    14    1
    19    10    19   ar
    20    19     4   ar
    21    18    20    1
    22     1    21    1
    23     1    22    1
    24     1    23    1
    25     5    24    1
    26    11    25    1
    27    15    26    1
    28    17    27    1
    29    19    28    1
