@<TRIPOS>MOLECULE

  61   63
SMALL
USER_CHARGES
@<TRIPOS>ATOM
   1 C1           2.6517    -4.3137     2.3625 C.3          1    LIG   0.0000
   2 C2           2.4512    -3.7266     0.9749 C.3          1    LIG   0.0000
   3 O3           2.0333    -2.3743     1.0889 O.3          1    LIG   0.0000
   4 C4           1.8249    -1.7509    -0.0442 C.2          1    LIG   0.0000
   5 O5           1.9894    -2.3260    -1.0845 O.2          1    LIG   0.0000
   6 C6           1.3955    -0.3665    -0.0415 C.2          1    LIG   0.0000
   7 C7           2.2922     0.6626    -0.0550 C.2          1    LIG   0.0000
   8 N8           3.6914     0.5731    -0.0821 N.am         1    LIG   0.0000
   9 C9           4.2992    -0.6546    -0.0984 C.2          1    LIG   0.0000
  10 O10          3.6342    -1.6534    -0.0895 O.2          1    LIG   0.0000
  11 C11          5.8163    -0.7515    -0.1278 C.3          1    LIG   0.0000
  12 C12          6.3496    -0.1041     1.1412 C.3          1    LIG   0.0000
  13 C13          7.8423    -0.3323     1.3250 C.2          1    LIG   0.0000
  14 C14          8.4941    -1.2889     0.6846 C.2          1    LIG   0.0000
  15 C15          7.7991    -2.2121    -0.3052 C.3          1    LIG   0.0000
  16 C16          6.2863    -2.1994    -0.1424 C.3          1    LIG   0.0000
  17 C17          5.6815    -2.9657    -1.3076 C.2          1    LIG   0.0000
  18 O18          6.3427    -3.1351    -2.3548 O.co2        1    LIG   0.0000
  19 O19          4.5600    -3.4118    -1.2215 O.co2        1    LIG  -1.0000
  20 S20          1.4027     2.1144    -0.0324 S.3          1    LIG   0.0000
  21 C21         -0.1456     1.4013    -0.0134 C.2          1    LIG   0.0000
  22 C22         -1.4145     2.1046     0.0081 C.2          1    LIG   0.0000
  23 O23         -1.4354     3.3044     0.0140 O.2          1    LIG   0.0000
  24 N24         -2.5887     1.3990     0.0217 N.am         1    LIG   0.0000
  25 C25         -3.8130     2.0776     0.0425 C.ar         1    LIG   0.0000
  26 C26         -3.8374     3.4688     0.0484 C.ar         1    LIG   0.0000
  27 C27         -5.0541     4.1435     0.0687 C.ar         1    LIG   0.0000
  28 C28         -6.2409     3.4176     0.0827 C.ar         1    LIG   0.0000
  29 C29         -7.5731     4.1496     0.1049 C.3          1    LIG   0.0000
  30 C30         -6.2271     2.0267     0.0768 C.ar         1    LIG   0.0000
  31 C31         -5.0060     1.3606     0.0563 C.ar         1    LIG   0.0000
  32 C32         -5.0045    -0.1596     0.0500 C.3          1    LIG   0.0000
  33 C33          0.0402     0.0525    -0.0199 C.2          1    LIG   0.0000
  34 C34         -1.1244    -0.9249    -0.0034 C.3          1    LIG   0.0000
  35 H            6.1718    -0.2710    -0.9295 H            1    LIG   0.0000
  36 H            6.0366    -2.6431     0.7183 H            1    LIG   0.0000
  37 H            2.9460    -5.2660     2.2822 H            1    LIG   0.0000
  38 H            3.3503    -3.7888     2.8487 H            1    LIG   0.0000
  39 H            1.7908    -4.2725     2.8695 H            1    LIG   0.0000
  40 H            3.3121    -3.7678     0.4679 H            1    LIG   0.0000
  41 H            1.7526    -4.2515     0.4886 H            1    LIG   0.0000
  42 H            4.2456     1.4055    -0.0895 H            1    LIG   0.0000
  43 H            6.1783     0.8801     1.0961 H            1    LIG   0.0000
  44 H            5.8664    -0.4908     1.9266 H            1    LIG   0.0000
  45 H            8.3481     0.2610     1.9513 H            1    LIG   0.0000
  46 H            9.4720    -1.4087     0.8560 H            1    LIG   0.0000
  47 H            8.1301    -3.1448    -0.1621 H            1    LIG   0.0000
  48 H            8.0251    -1.9170    -1.2336 H            1    LIG   0.0000
  49 H           -2.5712     0.3991     0.0168 H            1    LIG   0.0000
  50 H           -2.9802     3.9838     0.0381 H            1    LIG   0.0000
  51 H           -5.0754     5.1432     0.0732 H            1    LIG   0.0000
  52 H           -7.4112     5.1364     0.1067 H            1    LIG   0.0000
  53 H           -8.1039     3.9003    -0.7051 H            1    LIG   0.0000
  54 H           -8.0805     3.8936     0.9277 H            1    LIG   0.0000
  55 H           -7.0844     1.5119     0.0871 H            1    LIG   0.0000
  56 H           -5.9469    -0.4939     0.0619 H            1    LIG   0.0000
  57 H           -4.5443    -0.4891    -0.7744 H            1    LIG   0.0000
  58 H           -4.5213    -0.4958     0.8584 H            1    LIG   0.0000
  59 H           -0.7738    -1.8613    -0.0115 H            1    LIG   0.0000
  60 H           -1.6693    -0.7801     0.8225 H            1    LIG   0.0000
  61 H           -1.6961    -0.7759    -0.8102 H            1    LIG   0.0000
@<TRIPOS>BOND
   1        1        2 1
   2        2        3 1
   3        3        4 1
   4        4        5 2
   5        4        6 1
   6        6        7 2
   7        7        8 1
   8        8        9 am
   9        9       10 2
  10        9       11 1
  11       11       12 1
  12       12       13 1
  13       13       14 2
  14       14       15 1
  15       15       16 1
  16       16       11 1
  17       16       17 1
  18       17       18 ar
  19       17       19 ar
  20        7       20 1
  21       20       21 1
  22       21       22 1
  23       22       23 2
  24       22       24 am
  25       24       25 1
  26       25       26 ar
  27       26       27 ar
  28       27       28 ar
  29       28       29 1
  30       28       30 ar
  31       30       31 ar
  32       31       25 ar
  33       31       32 1
  34       21       33 2
  35       33        6 1
  36       33       34 1
  37       11       35 1
  38       16       36 1
  39        1       37 1
  40        1       38 1
  41        1       39 1
  42        2       40 1
  43        2       41 1
  44        8       42 1
  45       12       43 1
  46       12       44 1
  47       13       45 1
  48       14       46 1
  49       15       47 1
  50       15       48 1
  51       24       49 1
  52       26       50 1
  53       27       51 1
  54       29       52 1
  55       29       53 1
  56       29       54 1
  57       30       55 1
  58       32       56 1
  59       32       57 1
  60       32       58 1
  61       34       59 1
  62       34       60 1
  63       34       61 1

@<TRIPOS>MOLECULE

  61   63
SMALL
USER_CHARGES
@<TRIPOS>ATOM
   1 C1           1.2301    -4.6502    -1.2625 C.3          1    LIG   0.0000
   2 C2           2.4252    -3.7306    -1.0711 C.3          1    LIG   0.0000
   3 O3           2.0045    -2.3788    -1.1799 O.3          1    LIG   0.0000
   4 C4           1.8249    -1.7509    -0.0442 C.2          1    LIG   0.0000
   5 O5           2.0158    -2.3219     0.9938 O.2          1    LIG   0.0000
   6 C6           1.3955    -0.3665    -0.0415 C.2          1    LIG   0.0000
   7 C7           2.2922     0.6626    -0.0550 C.2          1    LIG   0.0000
   8 N8           3.6914     0.5731    -0.0821 N.am         1    LIG   0.0000
   9 C9           4.2992    -0.6546    -0.0984 C.2          1    LIG   0.0000
  10 O10          3.6342    -1.6534    -0.0895 O.2          1    LIG   0.0000
  11 C11          5.8163    -0.7515    -0.1278 C.3          1    LIG   0.0000
  12 C12          6.3496    -0.1041     1.1412 C.3          1    LIG   0.0000
  13 C13          7.8423    -0.3323     1.3250 C.2          1    LIG   0.0000
  14 C14          8.4941    -1.2889     0.6846 C.2          1    LIG   0.0000
  15 C15          7.7991    -2.2121    -0.3052 C.3          1    LIG   0.0000
  16 C16          6.2863    -2.1994    -0.1424 C.3          1    LIG   0.0000
  17 C17          5.6815    -2.9657    -1.3076 C.2          1    LIG   0.0000
  18 O18          6.3427    -3.1351    -2.3548 O.co2        1    LIG   0.0000
  19 O19          4.5600    -3.4118    -1.2215 O.co2        1    LIG  -1.0000
  20 S20          1.4027     2.1144    -0.0324 S.3          1    LIG   0.0000
  21 C21         -0.1456     1.4013    -0.0134 C.2          1    LIG   0.0000
  22 C22         -1.4145     2.1046     0.0081 C.2          1    LIG   0.0000
  23 O23         -1.4354     3.3044     0.0140 O.2          1    LIG   0.0000
  24 N24         -2.5887     1.3990     0.0217 N.am         1    LIG   0.0000
  25 C25         -3.8130     2.0776     0.0425 C.ar         1    LIG   0.0000
  26 C26         -3.8374     3.4688     0.0484 C.ar         1    LIG   0.0000
  27 C27         -5.0541     4.1435     0.0687 C.ar         1    LIG   0.0000
  28 C28         -6.2409     3.4176     0.0827 C.ar         1    LIG   0.0000
  29 C29         -7.5731     4.1496     0.1049 C.3          1    LIG   0.0000
  30 C30         -6.2271     2.0267     0.0768 C.ar         1    LIG   0.0000
  31 C31         -5.0060     1.3606     0.0563 C.ar         1    LIG   0.0000
  32 C32         -5.0045    -0.1596     0.0500 C.3          1    LIG   0.0000
  33 C33          0.0402     0.0525    -0.0199 C.2          1    LIG   0.0000
  34 C34         -1.1244    -0.9249    -0.0034 C.3          1    LIG   0.0000
  35 H            6.1718    -0.2710    -0.9295 H            1    LIG   0.0000
  36 H            6.0366    -2.6431     0.7183 H            1    LIG   0.0000
  37 H            1.5264    -5.6022    -1.1859 H            1    LIG   0.0000
  38 H            0.5449    -4.4568    -0.5602 H            1    LIG   0.0000
  39 H            0.8327    -4.4965    -2.1672 H            1    LIG   0.0000
  40 H            2.8225    -3.8843    -0.1664 H            1    LIG   0.0000
  41 H            3.1104    -3.9240    -1.7734 H            1    LIG   0.0000
  42 H            4.2456     1.4055    -0.0895 H            1    LIG   0.0000
  43 H            6.1783     0.8801     1.0961 H            1    LIG   0.0000
  44 H            5.8664    -0.4908     1.9266 H            1    LIG   0.0000
  45 H            8.3481     0.2610     1.9513 H            1    LIG   0.0000
  46 H            9.4720    -1.4087     0.8560 H            1    LIG   0.0000
  47 H            8.1301    -3.1448    -0.1621 H            1    LIG   0.0000
  48 H            8.0251    -1.9170    -1.2336 H            1    LIG   0.0000
  49 H           -2.5712     0.3991     0.0168 H            1    LIG   0.0000
  50 H           -2.9802     3.9838     0.0381 H            1    LIG   0.0000
  51 H           -5.0754     5.1432     0.0732 H            1    LIG   0.0000
  52 H           -7.4112     5.1364     0.1067 H            1    LIG   0.0000
  53 H           -8.1039     3.9003    -0.7051 H            1    LIG   0.0000
  54 H           -8.0805     3.8936     0.9277 H            1    LIG   0.0000
  55 H           -7.0844     1.5119     0.0871 H            1    LIG   0.0000
  56 H           -5.9469    -0.4939     0.0619 H            1    LIG   0.0000
  57 H           -4.5443    -0.4891    -0.7744 H            1    LIG   0.0000
  58 H           -4.5213    -0.4958     0.8584 H            1    LIG   0.0000
  59 H           -0.7738    -1.8613    -0.0115 H            1    LIG   0.0000
  60 H           -1.6693    -0.7801     0.8225 H            1    LIG   0.0000
  61 H           -1.6961    -0.7759    -0.8102 H            1    LIG   0.0000
@<TRIPOS>BOND
   1        1        2 1
   2        2        3 1
   3        3        4 1
   4        4        5 2
   5        4        6 1
   6        6        7 2
   7        7        8 1
   8        8        9 am
   9        9       10 2
  10        9       11 1
  11       11       12 1
  12       12       13 1
  13       13       14 2
  14       14       15 1
  15       15       16 1
  16       16       11 1
  17       16       17 1
  18       17       18 ar
  19       17       19 ar
  20        7       20 1
  21       20       21 1
  22       21       22 1
  23       22       23 2
  24       22       24 am
  25       24       25 1
  26       25       26 ar
  27       26       27 ar
  28       27       28 ar
  29       28       29 1
  30       28       30 ar
  31       30       31 ar
  32       31       25 ar
  33       31       32 1
  34       21       33 2
  35       33        6 1
  36       33       34 1
  37       11       35 1
  38       16       36 1
  39        1       37 1
  40        1       38 1
  41        1       39 1
  42        2       40 1
  43        2       41 1
  44        8       42 1
  45       12       43 1
  46       12       44 1
  47       13       45 1
  48       14       46 1
  49       15       47 1
  50       15       48 1
  51       24       49 1
  52       26       50 1
  53       27       51 1
  54       29       52 1
  55       29       53 1
  56       29       54 1
  57       30       55 1
  58       32       56 1
  59       32       57 1
  60       32       58 1
  61       34       59 1
  62       34       60 1
  63       34       61 1

@<TRIPOS>MOLECULE

  61   63
SMALL
USER_CHARGES
@<TRIPOS>ATOM
   1 C1           2.6517    -4.3137     2.3625 C.3          1    LIG   0.0000
   2 C2           2.4512    -3.7266     0.9749 C.3          1    LIG   0.0000
   3 O3           2.0333    -2.3743     1.0889 O.3          1    LIG   0.0000
   4 C4           1.8249    -1.7509    -0.0442 C.2          1    LIG   0.0000
   5 O5           1.9894    -2.3260    -1.0845 O.2          1    LIG   0.0000
   6 C6           1.3955    -0.3665    -0.0415 C.2          1    LIG   0.0000
   7 C7           2.2922     0.6626    -0.0550 C.2          1    LIG   0.0000
   8 N8           3.6914     0.5731    -0.0821 N.am         1    LIG   0.0000
   9 C9           4.2992    -0.6546    -0.0984 C.2          1    LIG   0.0000
  10 O10          3.6342    -1.6534    -0.0895 O.2          1    LIG   0.0000
  11 C11          5.8163    -0.7515    -0.1278 C.3          1    LIG   0.0000
  12 C12          6.3496    -0.1041     1.1412 C.3          1    LIG   0.0000
  13 C13          7.8423    -0.3323     1.3250 C.2          1    LIG   0.0000
  14 C14          8.4941    -1.2889     0.6846 C.2          1    LIG   0.0000
  15 C15          7.7991    -2.2121    -0.3052 C.3          1    LIG   0.0000
  16 C16          6.2863    -2.1994    -0.1424 C.3          1    LIG   0.0000
  17 C17          5.6815    -2.9657    -1.3076 C.2          1    LIG   0.0000
  18 O18          6.3427    -3.1351    -2.3548 O.co2        1    LIG   0.0000
  19 O19          4.5600    -3.4118    -1.2215 O.co2        1    LIG  -1.0000
  20 S20          1.4027     2.1144    -0.0324 S.3          1    LIG   0.0000
  21 C21         -0.1456     1.4013    -0.0134 C.2          1    LIG   0.0000
  22 C22         -1.4145     2.1046     0.0081 C.2          1    LIG   0.0000
  23 O23         -1.4354     3.3044     0.0140 O.2          1    LIG   0.0000
  24 N24         -2.5887     1.3990     0.0217 N.am         1    LIG   0.0000
  25 C25         -3.8130     2.0776     0.0425 C.ar         1    LIG   0.0000
  26 C26         -4.6981     1.8838     1.0984 C.ar         1    LIG   0.0000
  27 C27         -5.9149     2.5584     1.1193 C.ar         1    LIG   0.0000
  28 C28         -6.2369     3.4249     0.0796 C.ar         1    LIG   0.0000
  29 C29         -7.5649     4.1647     0.0975 C.3          1    LIG   0.0000
  30 C30         -5.3587     3.6256    -0.9802 C.ar         1    LIG   0.0000
  31 C31         -4.1445     2.9470    -0.9928 C.ar         1    LIG   0.0000
  32 C32         -3.1935     3.1750    -2.1568 C.3          1    LIG   0.0000
  33 C33          0.0402     0.0525    -0.0199 C.2          1    LIG   0.0000
  34 C34         -1.1244    -0.9249    -0.0034 C.3          1    LIG   0.0000
  35 H            6.1718    -0.2710    -0.9295 H            1    LIG   0.0000
  36 H            6.0366    -2.6431     0.7183 H            1    LIG   0.0000
  37 H            2.9460    -5.2660     2.2822 H            1    LIG   0.0000
  38 H            3.3503    -3.7888     2.8487 H            1    LIG   0.0000
  39 H            1.7908    -4.2725     2.8695 H            1    LIG   0.0000
  40 H            3.3121    -3.7678     0.4679 H            1    LIG   0.0000
  41 H            1.7526    -4.2515     0.4886 H            1    LIG   0.0000
  42 H            4.2456     1.4055    -0.0895 H            1    LIG   0.0000
  43 H            6.1783     0.8801     1.0961 H            1    LIG   0.0000
  44 H            5.8664    -0.4908     1.9266 H            1    LIG   0.0000
  45 H            8.3481     0.2610     1.9513 H            1    LIG   0.0000
  46 H            9.4720    -1.4087     0.8560 H            1    LIG   0.0000
  47 H            8.1301    -3.1448    -0.1621 H            1    LIG   0.0000
  48 H            8.0251    -1.9170    -1.2336 H            1    LIG   0.0000
  49 H           -2.5712     0.3991     0.0168 H            1    LIG   0.0000
  50 H           -4.4598     1.2595     1.8423 H            1    LIG   0.0000
  51 H           -6.5536     2.4214     1.8765 H            1    LIG   0.0000
  52 H           -8.0757     3.9127     0.9194 H            1    LIG   0.0000
  53 H           -7.3973     5.1505     0.0983 H            1    LIG   0.0000
  54 H           -8.0952     3.9173    -0.7134 H            1    LIG   0.0000
  55 H           -5.5973     4.2500    -1.7240 H            1    LIG   0.0000
  56 H           -3.6004     3.8268    -2.7968 H            1    LIG   0.0000
  57 H           -2.3283     3.5406    -1.8137 H            1    LIG   0.0000
  58 H           -3.0264     2.3076    -2.6256 H            1    LIG   0.0000
  59 H           -0.7738    -1.8613    -0.0115 H            1    LIG   0.0000
  60 H           -1.6693    -0.7801     0.8225 H            1    LIG   0.0000
  61 H           -1.6961    -0.7759    -0.8102 H            1    LIG   0.0000
@<TRIPOS>BOND
   1        1        2 1
   2        2        3 1
   3        3        4 1
   4        4        5 2
   5        4        6 1
   6        6        7 2
   7        7        8 1
   8        8        9 am
   9        9       10 2
  10        9       11 1
  11       11       12 1
  12       12       13 1
  13       13       14 2
  14       14       15 1
  15       15       16 1
  16       16       11 1
  17       16       17 1
  18       17       18 ar
  19       17       19 ar
  20        7       20 1
  21       20       21 1
  22       21       22 1
  23       22       23 2
  24       22       24 am
  25       24       25 1
  26       25       26 ar
  27       26       27 ar
  28       27       28 ar
  29       28       29 1
  30       28       30 ar
  31       30       31 ar
  32       31       25 ar
  33       31       32 1
  34       21       33 2
  35       33        6 1
  36       33       34 1
  37       11       35 1
  38       16       36 1
  39        1       37 1
  40        1       38 1
  41        1       39 1
  42        2       40 1
  43        2       41 1
  44        8       42 1
  45       12       43 1
  46       12       44 1
  47       13       45 1
  48       14       46 1
  49       15       47 1
  50       15       48 1
  51       24       49 1
  52       26       50 1
  53       27       51 1
  54       29       52 1
  55       29       53 1
  56       29       54 1
  57       30       55 1
  58       32       56 1
  59       32       57 1
  60       32       58 1
  61       34       59 1
  62       34       60 1
  63       34       61 1

@<TRIPOS>MOLECULE

  61   63
SMALL
USER_CHARGES
@<TRIPOS>ATOM
   1 C1           1.2301    -4.6502    -1.2625 C.3          1    LIG   0.0000
   2 C2           2.4252    -3.7306    -1.0711 C.3          1    LIG   0.0000
   3 O3           2.0045    -2.3788    -1.1799 O.3          1    LIG   0.0000
   4 C4           1.8249    -1.7509    -0.0442 C.2          1    LIG   0.0000
   5 O5           2.0158    -2.3219     0.9938 O.2          1    LIG   0.0000
   6 C6           1.3955    -0.3665    -0.0415 C.2          1    LIG   0.0000
   7 C7           2.2922     0.6626    -0.0550 C.2          1    LIG   0.0000
   8 N8           3.6914     0.5731    -0.0821 N.am         1    LIG   0.0000
   9 C9           4.2992    -0.6546    -0.0984 C.2          1    LIG   0.0000
  10 O10          3.6342    -1.6534    -0.0895 O.2          1    LIG   0.0000
  11 C11          5.8163    -0.7515    -0.1278 C.3          1    LIG   0.0000
  12 C12          6.3496    -0.1041     1.1412 C.3          1    LIG   0.0000
  13 C13          7.8423    -0.3323     1.3250 C.2          1    LIG   0.0000
  14 C14          8.4941    -1.2889     0.6846 C.2          1    LIG   0.0000
  15 C15          7.7991    -2.2121    -0.3052 C.3          1    LIG   0.0000
  16 C16          6.2863    -2.1994    -0.1424 C.3          1    LIG   0.0000
  17 C17          5.6815    -2.9657    -1.3076 C.2          1    LIG   0.0000
  18 O18          6.3427    -3.1351    -2.3548 O.co2        1    LIG   0.0000
  19 O19          4.5600    -3.4118    -1.2215 O.co2        1    LIG  -1.0000
  20 S20          1.4027     2.1144    -0.0324 S.3          1    LIG   0.0000
  21 C21         -0.1456     1.4013    -0.0134 C.2          1    LIG   0.0000
  22 C22         -1.4145     2.1046     0.0081 C.2          1    LIG   0.0000
  23 O23         -1.4354     3.3044     0.0140 O.2          1    LIG   0.0000
  24 N24         -2.5887     1.3990     0.0217 N.am         1    LIG   0.0000
  25 C25         -3.8130     2.0776     0.0425 C.ar         1    LIG   0.0000
  26 C26         -4.6981     1.8838     1.0984 C.ar         1    LIG   0.0000
  27 C27         -5.9149     2.5584     1.1193 C.ar         1    LIG   0.0000
  28 C28         -6.2369     3.4249     0.0796 C.ar         1    LIG   0.0000
  29 C29         -7.5649     4.1647     0.0975 C.3          1    LIG   0.0000
  30 C30         -5.3587     3.6256    -0.9802 C.ar         1    LIG   0.0000
  31 C31         -4.1445     2.9470    -0.9928 C.ar         1    LIG   0.0000
  32 C32         -3.1935     3.1750    -2.1568 C.3          1    LIG   0.0000
  33 C33          0.0402     0.0525    -0.0199 C.2          1    LIG   0.0000
  34 C34         -1.1244    -0.9249    -0.0034 C.3          1    LIG   0.0000
  35 H            6.1718    -0.2710    -0.9295 H            1    LIG   0.0000
  36 H            6.0366    -2.6431     0.7183 H            1    LIG   0.0000
  37 H            1.5264    -5.6022    -1.1859 H            1    LIG   0.0000
  38 H            0.5449    -4.4568    -0.5602 H            1    LIG   0.0000
  39 H            0.8327    -4.4965    -2.1672 H            1    LIG   0.0000
  40 H            2.8225    -3.8843    -0.1664 H            1    LIG   0.0000
  41 H            3.1104    -3.9240    -1.7734 H            1    LIG   0.0000
  42 H            4.2456     1.4055    -0.0895 H            1    LIG   0.0000
  43 H            6.1783     0.8801     1.0961 H            1    LIG   0.0000
  44 H            5.8664    -0.4908     1.9266 H            1    LIG   0.0000
  45 H            8.3481     0.2610     1.9513 H            1    LIG   0.0000
  46 H            9.4720    -1.4087     0.8560 H            1    LIG   0.0000
  47 H            8.1301    -3.1448    -0.1621 H            1    LIG   0.0000
  48 H            8.0251    -1.9170    -1.2336 H            1    LIG   0.0000
  49 H           -2.5712     0.3991     0.0168 H            1    LIG   0.0000
  50 H           -4.4598     1.2595     1.8423 H            1    LIG   0.0000
  51 H           -6.5536     2.4214     1.8765 H            1    LIG   0.0000
  52 H           -8.0757     3.9127     0.9194 H            1    LIG   0.0000
  53 H           -7.3973     5.1505     0.0983 H            1    LIG   0.0000
  54 H           -8.0952     3.9173    -0.7134 H            1    LIG   0.0000
  55 H           -5.5973     4.2500    -1.7240 H            1    LIG   0.0000
  56 H           -3.6004     3.8268    -2.7968 H            1    LIG   0.0000
  57 H           -2.3283     3.5406    -1.8137 H            1    LIG   0.0000
  58 H           -3.0264     2.3076    -2.6256 H            1    LIG   0.0000
  59 H           -0.7738    -1.8613    -0.0115 H            1    LIG   0.0000
  60 H           -1.6693    -0.7801     0.8225 H            1    LIG   0.0000
  61 H           -1.6961    -0.7759    -0.8102 H            1    LIG   0.0000
@<TRIPOS>BOND
   1        1        2 1
   2        2        3 1
   3        3        4 1
   4        4        5 2
   5        4        6 1
   6        6        7 2
   7        7        8 1
   8        8        9 am
   9        9       10 2
  10        9       11 1
  11       11       12 1
  12       12       13 1
  13       13       14 2
  14       14       15 1
  15       15       16 1
  16       16       11 1
  17       16       17 1
  18       17       18 ar
  19       17       19 ar
  20        7       20 1
  21       20       21 1
  22       21       22 1
  23       22       23 2
  24       22       24 am
  25       24       25 1
  26       25       26 ar
  27       26       27 ar
  28       27       28 ar
  29       28       29 1
  30       28       30 ar
  31       30       31 ar
  32       31       25 ar
  33       31       32 1
  34       21       33 2
  35       33        6 1
  36       33       34 1
  37       11       35 1
  38       16       36 1
  39        1       37 1
  40        1       38 1
  41        1       39 1
  42        2       40 1
  43        2       41 1
  44        8       42 1
  45       12       43 1
  46       12       44 1
  47       13       45 1
  48       14       46 1
  49       15       47 1
  50       15       48 1
  51       24       49 1
  52       26       50 1
  53       27       51 1
  54       29       52 1
  55       29       53 1
  56       29       54 1
  57       30       55 1
  58       32       56 1
  59       32       57 1
  60       32       58 1
  61       34       59 1
  62       34       60 1
  63       34       61 1

@<TRIPOS>MOLECULE

  61   63
SMALL
USER_CHARGES
@<TRIPOS>ATOM
   1 C1           2.6517    -4.3137     2.3625 C.3          1    LIG   0.0000
   2 C2           2.4512    -3.7266     0.9749 C.3          1    LIG   0.0000
   3 O3           2.0333    -2.3743     1.0889 O.3          1    LIG   0.0000
   4 C4           1.8249    -1.7509    -0.0442 C.2          1    LIG   0.0000
   5 O5           1.9894    -2.3260    -1.0845 O.2          1    LIG   0.0000
   6 C6           1.3955    -0.3665    -0.0415 C.2          1    LIG   0.0000
   7 C7           2.2922     0.6626    -0.0550 C.2          1    LIG   0.0000
   8 N8           3.6914     0.5731    -0.0821 N.am         1    LIG   0.0000
   9 C9           4.2992    -0.6546    -0.0984 C.2          1    LIG   0.0000
  10 O10          3.6342    -1.6534    -0.0895 O.2          1    LIG   0.0000
  11 C11          5.8163    -0.7515    -0.1278 C.3          1    LIG   0.0000
  12 C12          6.3496    -0.1041     1.1412 C.3          1    LIG   0.0000
  13 C13          7.8423    -0.3323     1.3250 C.2          1    LIG   0.0000
  14 C14          8.4941    -1.2889     0.6846 C.2          1    LIG   0.0000
  15 C15          7.7991    -2.2121    -0.3052 C.3          1    LIG   0.0000
  16 C16          6.2863    -2.1994    -0.1424 C.3          1    LIG   0.0000
  17 C17          5.6815    -2.9657    -1.3076 C.2          1    LIG   0.0000
  18 O18          6.3427    -3.1351    -2.3548 O.co2        1    LIG   0.0000
  19 O19          4.5600    -3.4118    -1.2215 O.co2        1    LIG  -1.0000
  20 S20          1.4027     2.1144    -0.0324 S.3          1    LIG   0.0000
  21 C21         -0.1456     1.4013    -0.0134 C.2          1    LIG   0.0000
  22 C22         -1.4145     2.1046     0.0081 C.2          1    LIG   0.0000
  23 O23         -1.4354     3.3044     0.0140 O.2          1    LIG   0.0000
  24 N24         -2.5887     1.3990     0.0217 N.am         1    LIG   0.0000
  25 C25         -3.8130     2.0776     0.0425 C.ar         1    LIG   0.0000
  26 C26         -4.7289     1.8921    -0.9884 C.ar         1    LIG   0.0000
  27 C27         -5.9459     2.5663    -0.9678 C.ar         1    LIG   0.0000
  28 C28         -6.2375     3.4236     0.0885 C.ar         1    LIG   0.0000
  29 C29         -7.5657     4.1626     0.1161 C.3          1    LIG   0.0000
  30 C30         -5.3286     3.6156     1.1238 C.ar         1    LIG   0.0000
  31 C31         -4.1144     2.9373     1.0949 C.ar         1    LIG   0.0000
  32 C32         -3.1298     3.1558     2.2324 C.3          1    LIG   0.0000
  33 C33          0.0402     0.0525    -0.0199 C.2          1    LIG   0.0000
  34 C34         -1.1244    -0.9249    -0.0034 C.3          1    LIG   0.0000
  35 H            6.1718    -0.2710    -0.9295 H            1    LIG   0.0000
  36 H            6.0366    -2.6431     0.7183 H            1    LIG   0.0000
  37 H            2.9460    -5.2660     2.2822 H            1    LIG   0.0000
  38 H            3.3503    -3.7888     2.8487 H            1    LIG   0.0000
  39 H            1.7908    -4.2725     2.8695 H            1    LIG   0.0000
  40 H            3.3121    -3.7678     0.4679 H            1    LIG   0.0000
  41 H            1.7526    -4.2515     0.4886 H            1    LIG   0.0000
  42 H            4.2456     1.4055    -0.0895 H            1    LIG   0.0000
  43 H            6.1783     0.8801     1.0961 H            1    LIG   0.0000
  44 H            5.8664    -0.4908     1.9266 H            1    LIG   0.0000
  45 H            8.3481     0.2610     1.9513 H            1    LIG   0.0000
  46 H            9.4720    -1.4087     0.8560 H            1    LIG   0.0000
  47 H            8.1301    -3.1448    -0.1621 H            1    LIG   0.0000
  48 H            8.0251    -1.9170    -1.2336 H            1    LIG   0.0000
  49 H           -2.5712     0.3991     0.0168 H            1    LIG   0.0000
  50 H           -4.5124     1.2742    -1.7442 H            1    LIG   0.0000
  51 H           -6.6065     2.4356    -1.7071 H            1    LIG   0.0000
  52 H           -8.1004     3.9175    -0.6926 H            1    LIG   0.0000
  53 H           -8.0718     3.9079     0.9401 H            1    LIG   0.0000
  54 H           -7.3986     5.1485     0.1190 H            1    LIG   0.0000
  55 H           -5.5454     4.2335     1.8795 H            1    LIG   0.0000
  56 H           -3.5180     3.8014     2.8900 H            1    LIG   0.0000
  57 H           -2.9483     2.2844     2.6881 H            1    LIG   0.0000
  58 H           -2.2753     3.5253     1.8672 H            1    LIG   0.0000
  59 H           -0.7738    -1.8613    -0.0115 H            1    LIG   0.0000
  60 H           -1.6693    -0.7801     0.8225 H            1    LIG   0.0000
  61 H           -1.6961    -0.7759    -0.8102 H            1    LIG   0.0000
@<TRIPOS>BOND
   1        1        2 1
   2        2        3 1
   3        3        4 1
   4        4        5 2
   5        4        6 1
   6        6        7 2
   7        7        8 1
   8        8        9 am
   9        9       10 2
  10        9       11 1
  11       11       12 1
  12       12       13 1
  13       13       14 2
  14       14       15 1
  15       15       16 1
  16       16       11 1
  17       16       17 1
  18       17       18 ar
  19       17       19 ar
  20        7       20 1
  21       20       21 1
  22       21       22 1
  23       22       23 2
  24       22       24 am
  25       24       25 1
  26       25       26 ar
  27       26       27 ar
  28       27       28 ar
  29       28       29 1
  30       28       30 ar
  31       30       31 ar
  32       31       25 ar
  33       31       32 1
  34       21       33 2
  35       33        6 1
  36       33       34 1
  37       11       35 1
  38       16       36 1
  39        1       37 1
  40        1       38 1
  41        1       39 1
  42        2       40 1
  43        2       41 1
  44        8       42 1
  45       12       43 1
  46       12       44 1
  47       13       45 1
  48       14       46 1
  49       15       47 1
  50       15       48 1
  51       24       49 1
  52       26       50 1
  53       27       51 1
  54       29       52 1
  55       29       53 1
  56       29       54 1
  57       30       55 1
  58       32       56 1
  59       32       57 1
  60       32       58 1
  61       34       59 1
  62       34       60 1
  63       34       61 1

@<TRIPOS>MOLECULE

  61   63
SMALL
USER_CHARGES
@<TRIPOS>ATOM
   1 C1           1.2301    -4.6502    -1.2625 C.3          1    LIG   0.0000
   2 C2           2.4252    -3.7306    -1.0711 C.3          1    LIG   0.0000
   3 O3           2.0045    -2.3788    -1.1799 O.3          1    LIG   0.0000
   4 C4           1.8249    -1.7509    -0.0442 C.2          1    LIG   0.0000
   5 O5           2.0158    -2.3219     0.9938 O.2          1    LIG   0.0000
   6 C6           1.3955    -0.3665    -0.0415 C.2          1    LIG   0.0000
   7 C7           2.2922     0.6626    -0.0550 C.2          1    LIG   0.0000
   8 N8           3.6914     0.5731    -0.0821 N.am         1    LIG   0.0000
   9 C9           4.2992    -0.6546    -0.0984 C.2          1    LIG   0.0000
  10 O10          3.6342    -1.6534    -0.0895 O.2          1    LIG   0.0000
  11 C11          5.8163    -0.7515    -0.1278 C.3          1    LIG   0.0000
  12 C12          6.3496    -0.1041     1.1412 C.3          1    LIG   0.0000
  13 C13          7.8423    -0.3323     1.3250 C.2          1    LIG   0.0000
  14 C14          8.4941    -1.2889     0.6846 C.2          1    LIG   0.0000
  15 C15          7.7991    -2.2121    -0.3052 C.3          1    LIG   0.0000
  16 C16          6.2863    -2.1994    -0.1424 C.3          1    LIG   0.0000
  17 C17          5.6815    -2.9657    -1.3076 C.2          1    LIG   0.0000
  18 O18          6.3427    -3.1351    -2.3548 O.co2        1    LIG   0.0000
  19 O19          4.5600    -3.4118    -1.2215 O.co2        1    LIG  -1.0000
  20 S20          1.4027     2.1144    -0.0324 S.3          1    LIG   0.0000
  21 C21         -0.1456     1.4013    -0.0134 C.2          1    LIG   0.0000
  22 C22         -1.4145     2.1046     0.0081 C.2          1    LIG   0.0000
  23 O23         -1.4354     3.3044     0.0140 O.2          1    LIG   0.0000
  24 N24         -2.5887     1.3990     0.0217 N.am         1    LIG   0.0000
  25 C25         -3.8130     2.0776     0.0425 C.ar         1    LIG   0.0000
  26 C26         -4.7289     1.8921    -0.9884 C.ar         1    LIG   0.0000
  27 C27         -5.9459     2.5663    -0.9678 C.ar         1    LIG   0.0000
  28 C28         -6.2375     3.4236     0.0885 C.ar         1    LIG   0.0000
  29 C29         -7.5657     4.1626     0.1161 C.3          1    LIG   0.0000
  30 C30         -5.3286     3.6156     1.1238 C.ar         1    LIG   0.0000
  31 C31         -4.1144     2.9373     1.0949 C.ar         1    LIG   0.0000
  32 C32         -3.1298     3.1558     2.2324 C.3          1    LIG   0.0000
  33 C33          0.0402     0.0525    -0.0199 C.2          1    LIG   0.0000
  34 C34         -1.1244    -0.9249    -0.0034 C.3          1    LIG   0.0000
  35 H            6.1718    -0.2710    -0.9295 H            1    LIG   0.0000
  36 H            6.0366    -2.6431     0.7183 H            1    LIG   0.0000
  37 H            1.5264    -5.6022    -1.1859 H            1    LIG   0.0000
  38 H            0.5449    -4.4568    -0.5602 H            1    LIG   0.0000
  39 H            0.8327    -4.4965    -2.1672 H            1    LIG   0.0000
  40 H            2.8225    -3.8843    -0.1664 H            1    LIG   0.0000
  41 H            3.1104    -3.9240    -1.7734 H            1    LIG   0.0000
  42 H            4.2456     1.4055    -0.0895 H            1    LIG   0.0000
  43 H            6.1783     0.8801     1.0961 H            1    LIG   0.0000
  44 H            5.8664    -0.4908     1.9266 H            1    LIG   0.0000
  45 H            8.3481     0.2610     1.9513 H            1    LIG   0.0000
  46 H            9.4720    -1.4087     0.8560 H            1    LIG   0.0000
  47 H            8.1301    -3.1448    -0.1621 H            1    LIG   0.0000
  48 H            8.0251    -1.9170    -1.2336 H            1    LIG   0.0000
  49 H           -2.5712     0.3991     0.0168 H            1    LIG   0.0000
  50 H           -4.5124     1.2742    -1.7442 H            1    LIG   0.0000
  51 H           -6.6065     2.4356    -1.7071 H            1    LIG   0.0000
  52 H           -8.1004     3.9175    -0.6926 H            1    LIG   0.0000
  53 H           -8.0718     3.9079     0.9401 H            1    LIG   0.0000
  54 H           -7.3986     5.1485     0.1190 H            1    LIG   0.0000
  55 H           -5.5454     4.2335     1.8795 H            1    LIG   0.0000
  56 H           -3.5180     3.8014     2.8900 H            1    LIG   0.0000
  57 H           -2.9483     2.2844     2.6881 H            1    LIG   0.0000
  58 H           -2.2753     3.5253     1.8672 H            1    LIG   0.0000
  59 H           -0.7738    -1.8613    -0.0115 H            1    LIG   0.0000
  60 H           -1.6693    -0.7801     0.8225 H            1    LIG   0.0000
  61 H           -1.6961    -0.7759    -0.8102 H            1    LIG   0.0000
@<TRIPOS>BOND
   1        1        2 1
   2        2        3 1
   3        3        4 1
   4        4        5 2
   5        4        6 1
   6        6        7 2
   7        7        8 1
   8        8        9 am
   9        9       10 2
  10        9       11 1
  11       11       12 1
  12       12       13 1
  13       13       14 2
  14       14       15 1
  15       15       16 1
  16       16       11 1
  17       16       17 1
  18       17       18 ar
  19       17       19 ar
  20        7       20 1
  21       20       21 1
  22       21       22 1
  23       22       23 2
  24       22       24 am
  25       24       25 1
  26       25       26 ar
  27       26       27 ar
  28       27       28 ar
  29       28       29 1
  30       28       30 ar
  31       30       31 ar
  32       31       25 ar
  33       31       32 1
  34       21       33 2
  35       33        6 1
  36       33       34 1
  37       11       35 1
  38       16       36 1
  39        1       37 1
  40        1       38 1
  41        1       39 1
  42        2       40 1
  43        2       41 1
  44        8       42 1
  45       12       43 1
  46       12       44 1
  47       13       45 1
  48       14       46 1
  49       15       47 1
  50       15       48 1
  51       24       49 1
  52       26       50 1
  53       27       51 1
  54       29       52 1
  55       29       53 1
  56       29       54 1
  57       30       55 1
  58       32       56 1
  59       32       57 1
  60       32       58 1
  61       34       59 1
  62       34       60 1
  63       34       61 1

@<TRIPOS>MOLECULE

  61   63
SMALL
USER_CHARGES
@<TRIPOS>ATOM
   1 C1           3.9571    -3.8093     1.1643 C.3          1    LIG   0.0000
   2 C2           2.4512    -3.7266     0.9749 C.3          1    LIG   0.0000
   3 O3           2.0333    -2.3743     1.0889 O.3          1    LIG   0.0000
   4 C4           1.8249    -1.7509    -0.0442 C.2          1    LIG   0.0000
   5 O5           1.9894    -2.3260    -1.0845 O.2          1    LIG   0.0000
   6 C6           1.3955    -0.3665    -0.0415 C.2          1    LIG   0.0000
   7 C7           2.2922     0.6626    -0.0550 C.2          1    LIG   0.0000
   8 N8           3.6914     0.5731    -0.0821 N.am         1    LIG   0.0000
   9 C9           4.2992    -0.6546    -0.0984 C.2          1    LIG   0.0000
  10 O10          3.6342    -1.6534    -0.0895 O.2          1    LIG   0.0000
  11 C11          5.8163    -0.7515    -0.1278 C.3          1    LIG   0.0000
  12 C12          6.3496    -0.1041     1.1412 C.3          1    LIG   0.0000
  13 C13          7.8423    -0.3323     1.3250 C.2          1    LIG   0.0000
  14 C14          8.4941    -1.2889     0.6846 C.2          1    LIG   0.0000
  15 C15          7.7991    -2.2121    -0.3052 C.3          1    LIG   0.0000
  16 C16          6.2863    -2.1994    -0.1424 C.3          1    LIG   0.0000
  17 C17          5.6815    -2.9657    -1.3076 C.2          1    LIG   0.0000
  18 O18          6.3427    -3.1351    -2.3548 O.co2        1    LIG   0.0000
  19 O19          4.5600    -3.4118    -1.2215 O.co2        1    LIG  -1.0000
  20 S20          1.4027     2.1144    -0.0324 S.3          1    LIG   0.0000
  21 C21         -0.1456     1.4013    -0.0134 C.2          1    LIG   0.0000
  22 C22         -1.4145     2.1046     0.0081 C.2          1    LIG   0.0000
  23 O23         -1.4709     3.2513    -0.3412 O.2          1    LIG   0.0000
  24 N24         -2.5482     1.4597     0.4273 N.am         1    LIG   0.0000
  25 C25         -3.7948     1.8246    -0.0951 C.ar         1    LIG   0.0000
  26 C26         -3.8719     2.4683    -1.3261 C.ar         1    LIG   0.0000
  27 C27         -5.1108     2.8308    -1.8456 C.ar         1    LIG   0.0000
  28 C28         -6.2667     2.5446    -1.1261 C.ar         1    LIG   0.0000
  29 C29         -7.6229     2.9383    -1.6889 C.3          1    LIG   0.0000
  30 C30         -6.2001     1.9012     0.1053 C.ar         1    LIG   0.0000
  31 C31         -4.9572     1.5425     0.6168 C.ar         1    LIG   0.0000
  32 C32         -4.8980     0.8398     1.9637 C.3          1    LIG   0.0000
  33 C33          0.0402     0.0525    -0.0199 C.2          1    LIG   0.0000
  34 C34         -1.1244    -0.9249    -0.0034 C.3          1    LIG   0.0000
  35 H            6.1718    -0.2710    -0.9295 H            1    LIG   0.0000
  36 H            6.0366    -2.6431     0.7183 H            1    LIG   0.0000
  37 H            4.2513    -4.7616     1.0839 H            1    LIG   0.0000
  38 H            4.4118    -3.2596     0.4635 H            1    LIG   0.0000
  39 H            4.1987    -3.4609     2.0699 H            1    LIG   0.0000
  40 H            2.2095    -4.0749     0.0692 H            1    LIG   0.0000
  41 H            1.9964    -4.2762     1.6756 H            1    LIG   0.0000
  42 H            4.2456     1.4055    -0.0895 H            1    LIG   0.0000
  43 H            6.1783     0.8801     1.0961 H            1    LIG   0.0000
  44 H            5.8664    -0.4908     1.9266 H            1    LIG   0.0000
  45 H            8.3481     0.2610     1.9513 H            1    LIG   0.0000
  46 H            9.4720    -1.4087     0.8560 H            1    LIG   0.0000
  47 H            8.1301    -3.1448    -0.1621 H            1    LIG   0.0000
  48 H            8.0251    -1.9170    -1.2336 H            1    LIG   0.0000
  49 H           -2.4852     0.7283     1.1063 H            1    LIG   0.0000
  50 H           -3.0368     2.6706    -1.8377 H            1    LIG   0.0000
  51 H           -5.1700     3.2938    -2.7299 H            1    LIG   0.0000
  52 H           -7.4989     3.3877    -2.5736 H            1    LIG   0.0000
  53 H           -8.1853     2.1199    -1.8066 H            1    LIG   0.0000
  54 H           -8.0766     3.5664    -1.0567 H            1    LIG   0.0000
  55 H           -7.0354     1.6991     0.6167 H            1    LIG   0.0000
  56 H           -5.8250     0.7243     2.3204 H            1    LIG   0.0000
  57 H           -4.4691    -0.0568     1.8533 H            1    LIG   0.0000
  58 H           -4.3608     1.3898     2.6032 H            1    LIG   0.0000
  59 H           -0.7738    -1.8613    -0.0115 H            1    LIG   0.0000
  60 H           -1.6693    -0.7801     0.8225 H            1    LIG   0.0000
  61 H           -1.6961    -0.7759    -0.8102 H            1    LIG   0.0000
@<TRIPOS>BOND
   1        1        2 1
   2        2        3 1
   3        3        4 1
   4        4        5 2
   5        4        6 1
   6        6        7 2
   7        7        8 1
   8        8        9 am
   9        9       10 2
  10        9       11 1
  11       11       12 1
  12       12       13 1
  13       13       14 2
  14       14       15 1
  15       15       16 1
  16       16       11 1
  17       16       17 1
  18       17       18 ar
  19       17       19 ar
  20        7       20 1
  21       20       21 1
  22       21       22 1
  23       22       23 2
  24       22       24 am
  25       24       25 1
  26       25       26 ar
  27       26       27 ar
  28       27       28 ar
  29       28       29 1
  30       28       30 ar
  31       30       31 ar
  32       31       25 ar
  33       31       32 1
  34       21       33 2
  35       33        6 1
  36       33       34 1
  37       11       35 1
  38       16       36 1
  39        1       37 1
  40        1       38 1
  41        1       39 1
  42        2       40 1
  43        2       41 1
  44        8       42 1
  45       12       43 1
  46       12       44 1
  47       13       45 1
  48       14       46 1
  49       15       47 1
  50       15       48 1
  51       24       49 1
  52       26       50 1
  53       27       51 1
  54       29       52 1
  55       29       53 1
  56       29       54 1
  57       30       55 1
  58       32       56 1
  59       32       57 1
  60       32       58 1
  61       34       59 1
  62       34       60 1
  63       34       61 1

@<TRIPOS>MOLECULE

  61   63
SMALL
USER_CHARGES
@<TRIPOS>ATOM
   1 C1           1.2435    -4.6090     0.7041 C.3          1    LIG   0.0000
   2 C2           2.4512    -3.7266     0.9749 C.3          1    LIG   0.0000
   3 O3           2.0333    -2.3743     1.0889 O.3          1    LIG   0.0000
   4 C4           1.8249    -1.7509    -0.0442 C.2          1    LIG   0.0000
   5 O5           1.9894    -2.3260    -1.0845 O.2          1    LIG   0.0000
   6 C6           1.3955    -0.3665    -0.0415 C.2          1    LIG   0.0000
   7 C7           2.2922     0.6626    -0.0550 C.2          1    LIG   0.0000
   8 N8           3.6914     0.5731    -0.0821 N.am         1    LIG   0.0000
   9 C9           4.2992    -0.6546    -0.0984 C.2          1    LIG   0.0000
  10 O10          3.6342    -1.6534    -0.0895 O.2          1    LIG   0.0000
  11 C11          5.8163    -0.7515    -0.1278 C.3          1    LIG   0.0000
  12 C12          6.3496    -0.1041     1.1412 C.3          1    LIG   0.0000
  13 C13          7.8423    -0.3323     1.3250 C.2          1    LIG   0.0000
  14 C14          8.4941    -1.2889     0.6846 C.2          1    LIG   0.0000
  15 C15          7.7991    -2.2121    -0.3052 C.3          1    LIG   0.0000
  16 C16          6.2863    -2.1994    -0.1424 C.3          1    LIG   0.0000
  17 C17          5.6815    -2.9657    -1.3076 C.2          1    LIG   0.0000
  18 O18          6.3427    -3.1351    -2.3548 O.co2        1    LIG   0.0000
  19 O19          4.5600    -3.4118    -1.2215 O.co2        1    LIG  -1.0000
  20 S20          1.4027     2.1144    -0.0324 S.3          1    LIG   0.0000
  21 C21         -0.1456     1.4013    -0.0134 C.2          1    LIG   0.0000
  22 C22         -1.4145     2.1046     0.0081 C.2          1    LIG   0.0000
  23 O23         -1.4709     3.2513    -0.3412 O.2          1    LIG   0.0000
  24 N24         -2.5482     1.4597     0.4273 N.am         1    LIG   0.0000
  25 C25         -3.7948     1.8246    -0.0951 C.ar         1    LIG   0.0000
  26 C26         -4.6377     2.6576     0.6339 C.ar         1    LIG   0.0000
  27 C27         -5.8766     3.0207     0.1148 C.ar         1    LIG   0.0000
  28 C28         -6.2630     2.5453    -1.1343 C.ar         1    LIG   0.0000
  29 C29         -7.6154     2.9388    -1.7063 C.3          1    LIG   0.0000
  30 C30         -5.4274     1.7122    -1.8708 C.ar         1    LIG   0.0000
  31 C31         -4.1906     1.3545    -1.3440 C.ar         1    LIG   0.0000
  32 C32         -3.2867     0.4434    -2.1589 C.3          1    LIG   0.0000
  33 C33          0.0402     0.0525    -0.0199 C.2          1    LIG   0.0000
  34 C34         -1.1244    -0.9249    -0.0034 C.3          1    LIG   0.0000
  35 H            6.1718    -0.2710    -0.9295 H            1    LIG   0.0000
  36 H            6.0366    -2.6431     0.7183 H            1    LIG   0.0000
  37 H            1.5378    -5.5613     0.6238 H            1    LIG   0.0000
  38 H            0.5925    -4.5237     1.4584 H            1    LIG   0.0000
  39 H            0.8056    -4.3224    -0.1481 H            1    LIG   0.0000
  40 H            2.8890    -4.0132     1.8270 H            1    LIG   0.0000
  41 H            3.1021    -3.8118     0.2206 H            1    LIG   0.0000
  42 H            4.2456     1.4055    -0.0895 H            1    LIG   0.0000
  43 H            6.1783     0.8801     1.0961 H            1    LIG   0.0000
  44 H            5.8664    -0.4908     1.9266 H            1    LIG   0.0000
  45 H            8.3481     0.2610     1.9513 H            1    LIG   0.0000
  46 H            9.4720    -1.4087     0.8560 H            1    LIG   0.0000
  47 H            8.1301    -3.1448    -0.1621 H            1    LIG   0.0000
  48 H            8.0251    -1.9170    -1.2336 H            1    LIG   0.0000
  49 H           -2.4852     0.7283     1.1063 H            1    LIG   0.0000
  50 H           -4.3531     2.9956     1.5310 H            1    LIG   0.0000
  51 H           -6.4851     3.6191     0.6360 H            1    LIG   0.0000
  52 H           -8.0900     3.5358    -1.0594 H            1    LIG   0.0000
  53 H           -7.4835     3.4228    -2.5714 H            1    LIG   0.0000
  54 H           -8.1625     2.1168    -1.8643 H            1    LIG   0.0000
  55 H           -5.7123     1.3744    -2.7679 H            1    LIG   0.0000
  56 H           -3.7372     0.2113    -3.0209 H            1    LIG   0.0000
  57 H           -2.4245     0.9129    -2.3492 H            1    LIG   0.0000
  58 H           -3.1038    -0.3931    -1.6425 H            1    LIG   0.0000
  59 H           -0.7738    -1.8613    -0.0115 H            1    LIG   0.0000
  60 H           -1.6693    -0.7801     0.8225 H            1    LIG   0.0000
  61 H           -1.6961    -0.7759    -0.8102 H            1    LIG   0.0000
@<TRIPOS>BOND
   1        1        2 1
   2        2        3 1
   3        3        4 1
   4        4        5 2
   5        4        6 1
   6        6        7 2
   7        7        8 1
   8        8        9 am
   9        9       10 2
  10        9       11 1
  11       11       12 1
  12       12       13 1
  13       13       14 2
  14       14       15 1
  15       15       16 1
  16       16       11 1
  17       16       17 1
  18       17       18 ar
  19       17       19 ar
  20        7       20 1
  21       20       21 1
  22       21       22 1
  23       22       23 2
  24       22       24 am
  25       24       25 1
  26       25       26 ar
  27       26       27 ar
  28       27       28 ar
  29       28       29 1
  30       28       30 ar
  31       30       31 ar
  32       31       25 ar
  33       31       32 1
  34       21       33 2
  35       33        6 1
  36       33       34 1
  37       11       35 1
  38       16       36 1
  39        1       37 1
  40        1       38 1
  41        1       39 1
  42        2       40 1
  43        2       41 1
  44        8       42 1
  45       12       43 1
  46       12       44 1
  47       13       45 1
  48       14       46 1
  49       15       47 1
  50       15       48 1
  51       24       49 1
  52       26       50 1
  53       27       51 1
  54       29       52 1
  55       29       53 1
  56       29       54 1
  57       30       55 1
  58       32       56 1
  59       32       57 1
  60       32       58 1
  61       34       59 1
  62       34       60 1
  63       34       61 1

@<TRIPOS>MOLECULE

  61   63
SMALL
USER_CHARGES
@<TRIPOS>ATOM
   1 C1           0.5926    -4.2669     0.7602 C.3          1    LIG   0.0000
   2 C2           2.0132    -3.7924     1.0192 C.3          1    LIG   0.0000
   3 O3           2.0333    -2.3743     1.0889 O.3          1    LIG   0.0000
   4 C4           1.8249    -1.7509    -0.0442 C.2          1    LIG   0.0000
   5 O5           1.9894    -2.3260    -1.0845 O.2          1    LIG   0.0000
   6 C6           1.3955    -0.3665    -0.0415 C.2          1    LIG   0.0000
   7 C7           2.2922     0.6626    -0.0550 C.2          1    LIG   0.0000
   8 N8           3.6914     0.5731    -0.0821 N.am         1    LIG   0.0000
   9 C9           4.2992    -0.6546    -0.0984 C.2          1    LIG   0.0000
  10 O10          3.6342    -1.6534    -0.0895 O.2          1    LIG   0.0000
  11 C11          5.8163    -0.7515    -0.1278 C.3          1    LIG   0.0000
  12 C12          6.3496    -0.1041     1.1412 C.3          1    LIG   0.0000
  13 C13          7.8423    -0.3323     1.3250 C.2          1    LIG   0.0000
  14 C14          8.4941    -1.2889     0.6846 C.2          1    LIG   0.0000
  15 C15          7.7991    -2.2121    -0.3052 C.3          1    LIG   0.0000
  16 C16          6.2863    -2.1994    -0.1424 C.3          1    LIG   0.0000
  17 C17          5.6815    -2.9657    -1.3076 C.2          1    LIG   0.0000
  18 O18          6.3427    -3.1351    -2.3548 O.co2        1    LIG   0.0000
  19 O19          4.5600    -3.4118    -1.2215 O.co2        1    LIG  -1.0000
  20 S20          1.4027     2.1144    -0.0324 S.3          1    LIG   0.0000
  21 C21         -0.1456     1.4013    -0.0134 C.2          1    LIG   0.0000
  22 C22         -1.4145     2.1046     0.0081 C.2          1    LIG   0.0000
  23 O23         -1.4709     3.2513    -0.3412 O.2          1    LIG   0.0000
  24 N24         -2.5482     1.4597     0.4273 N.am         1    LIG   0.0000
  25 C25         -3.5774     2.1820     1.0429 C.ar         1    LIG   0.0000
  26 C26         -3.6924     3.5515     0.8260 C.ar         1    LIG   0.0000
  27 C27         -4.7155     4.2695     1.4376 C.ar         1    LIG   0.0000
  28 C28         -5.6184     3.6084     2.2641 C.ar         1    LIG   0.0000
  29 C29         -6.7381     4.3879     2.9347 C.3          1    LIG   0.0000
  30 C30         -5.5119     2.2395     2.4871 C.ar         1    LIG   0.0000
  31 C31         -4.4861     1.5298     1.8714 C.ar         1    LIG   0.0000
  32 C32         -4.3806     0.0343     2.1233 C.3          1    LIG   0.0000
  33 C33          0.0402     0.0525    -0.0199 C.2          1    LIG   0.0000
  34 C34         -1.1244    -0.9249    -0.0034 C.3          1    LIG   0.0000
  35 H            6.1718    -0.2710    -0.9295 H            1    LIG   0.0000
  36 H            6.0366    -2.6431     0.7183 H            1    LIG   0.0000
  37 H            0.5784    -5.2656     0.7111 H            1    LIG   0.0000
  38 H           -0.0018    -3.9613     1.5041 H            1    LIG   0.0000
  39 H            0.2664    -3.8860    -0.1049 H            1    LIG   0.0000
  40 H            2.3393    -4.1733     1.8844 H            1    LIG   0.0000
  41 H            2.6075    -4.0980     0.2753 H            1    LIG   0.0000
  42 H            4.2456     1.4055    -0.0895 H            1    LIG   0.0000
  43 H            6.1783     0.8801     1.0961 H            1    LIG   0.0000
  44 H            5.8664    -0.4908     1.9266 H            1    LIG   0.0000
  45 H            8.3481     0.2610     1.9513 H            1    LIG   0.0000
  46 H            9.4720    -1.4087     0.8560 H            1    LIG   0.0000
  47 H            8.1301    -3.1448    -0.1621 H            1    LIG   0.0000
  48 H            8.0251    -1.9170    -1.2336 H            1    LIG   0.0000
  49 H           -2.6405     0.4730     0.2934 H            1    LIG   0.0000
  50 H           -3.0398     4.0199     0.2304 H            1    LIG   0.0000
  51 H           -4.8011     5.2539     1.2840 H            1    LIG   0.0000
  52 H           -6.6758     5.3514     2.6744 H            1    LIG   0.0000
  53 H           -7.6212     4.0202     2.6432 H            1    LIG   0.0000
  54 H           -6.6538     4.3048     3.9277 H            1    LIG   0.0000
  55 H           -6.1648     1.7714     3.0826 H            1    LIG   0.0000
  56 H           -5.1144    -0.2526     2.7392 H            1    LIG   0.0000
  57 H           -4.4626    -0.4564     1.2558 H            1    LIG   0.0000
  58 H           -3.4955    -0.1719     2.5405 H            1    LIG   0.0000
  59 H           -0.7738    -1.8613    -0.0115 H            1    LIG   0.0000
  60 H           -1.6693    -0.7801     0.8225 H            1    LIG   0.0000
  61 H           -1.6961    -0.7759    -0.8102 H            1    LIG   0.0000
@<TRIPOS>BOND
   1        1        2 1
   2        2        3 1
   3        3        4 1
   4        4        5 2
   5        4        6 1
   6        6        7 2
   7        7        8 1
   8        8        9 am
   9        9       10 2
  10        9       11 1
  11       11       12 1
  12       12       13 1
  13       13       14 2
  14       14       15 1
  15       15       16 1
  16       16       11 1
  17       16       17 1
  18       17       18 ar
  19       17       19 ar
  20        7       20 1
  21       20       21 1
  22       21       22 1
  23       22       23 2
  24       22       24 am
  25       24       25 1
  26       25       26 ar
  27       26       27 ar
  28       27       28 ar
  29       28       29 1
  30       28       30 ar
  31       30       31 ar
  32       31       25 ar
  33       31       32 1
  34       21       33 2
  35       33        6 1
  36       33       34 1
  37       11       35 1
  38       16       36 1
  39        1       37 1
  40        1       38 1
  41        1       39 1
  42        2       40 1
  43        2       41 1
  44        8       42 1
  45       12       43 1
  46       12       44 1
  47       13       45 1
  48       14       46 1
  49       15       47 1
  50       15       48 1
  51       24       49 1
  52       26       50 1
  53       27       51 1
  54       29       52 1
  55       29       53 1
  56       29       54 1
  57       30       55 1
  58       32       56 1
  59       32       57 1
  60       32       58 1
  61       34       59 1
  62       34       60 1
  63       34       61 1

@<TRIPOS>MOLECULE

  61   63
SMALL
USER_CHARGES
@<TRIPOS>ATOM
   1 C1           2.3999    -4.3668    -2.4671 C.3          1    LIG   0.0000
   2 C2           2.2075    -3.7805    -1.0780 C.3          1    LIG   0.0000
   3 O3           2.0045    -2.3788    -1.1799 O.3          1    LIG   0.0000
   4 C4           1.8249    -1.7509    -0.0442 C.2          1    LIG   0.0000
   5 O5           2.0158    -2.3219     0.9938 O.2          1    LIG   0.0000
   6 C6           1.3955    -0.3665    -0.0415 C.2          1    LIG   0.0000
   7 C7           2.2922     0.6626    -0.0550 C.2          1    LIG   0.0000
   8 N8           3.6914     0.5731    -0.0821 N.am         1    LIG   0.0000
   9 C9           4.2992    -0.6546    -0.0984 C.2          1    LIG   0.0000
  10 O10          3.6342    -1.6534    -0.0895 O.2          1    LIG   0.0000
  11 C11          5.8163    -0.7515    -0.1278 C.3          1    LIG   0.0000
  12 C12          6.3496    -0.1041     1.1412 C.3          1    LIG   0.0000
  13 C13          7.8423    -0.3323     1.3250 C.2          1    LIG   0.0000
  14 C14          8.4941    -1.2889     0.6846 C.2          1    LIG   0.0000
  15 C15          7.7991    -2.2121    -0.3052 C.3          1    LIG   0.0000
  16 C16          6.2863    -2.1994    -0.1424 C.3          1    LIG   0.0000
  17 C17          5.6815    -2.9657    -1.3076 C.2          1    LIG   0.0000
  18 O18          6.3427    -3.1351    -2.3548 O.co2        1    LIG   0.0000
  19 O19          4.5600    -3.4118    -1.2215 O.co2        1    LIG  -1.0000
  20 S20          1.4027     2.1144    -0.0324 S.3          1    LIG   0.0000
  21 C21         -0.1456     1.4013    -0.0134 C.2          1    LIG   0.0000
  22 C22         -1.4145     2.1046     0.0081 C.2          1    LIG   0.0000
  23 O23         -1.4709     3.2513    -0.3412 O.2          1    LIG   0.0000
  24 N24         -2.5482     1.4597     0.4273 N.am         1    LIG   0.0000
  25 C25         -3.5774     2.1820     1.0429 C.ar         1    LIG   0.0000
  26 C26         -3.9959     3.3942     0.5032 C.ar         1    LIG   0.0000
  27 C27         -5.0190     4.1120     1.1148 C.ar         1    LIG   0.0000
  28 C28         -5.6172     3.6088     2.2656 C.ar         1    LIG   0.0000
  29 C29         -6.7355     4.3889     2.9379 C.3          1    LIG   0.0000
  30 C30         -5.2060     2.3978     2.8128 C.ar         1    LIG   0.0000
  31 C31         -4.1825     1.6869     2.1945 C.ar         1    LIG   0.0000
  32 C32         -3.7424     0.3648     2.8024 C.3          1    LIG   0.0000
  33 C33          0.0402     0.0525    -0.0199 C.2          1    LIG   0.0000
  34 C34         -1.1244    -0.9249    -0.0034 C.3          1    LIG   0.0000
  35 H            6.1718    -0.2710    -0.9295 H            1    LIG   0.0000
  36 H            6.0366    -2.6431     0.7183 H            1    LIG   0.0000
  37 H            2.5429    -5.3540    -2.3953 H            1    LIG   0.0000
  38 H            1.5865    -4.1872    -3.0203 H            1    LIG   0.0000
  39 H            3.1969    -3.9451    -2.8995 H            1    LIG   0.0000
  40 H            1.4105    -4.2022    -0.6456 H            1    LIG   0.0000
  41 H            3.0209    -3.9601    -0.5248 H            1    LIG   0.0000
  42 H            4.2456     1.4055    -0.0895 H            1    LIG   0.0000
  43 H            6.1783     0.8801     1.0961 H            1    LIG   0.0000
  44 H            5.8664    -0.4908     1.9266 H            1    LIG   0.0000
  45 H            8.3481     0.2610     1.9513 H            1    LIG   0.0000
  46 H            9.4720    -1.4087     0.8560 H            1    LIG   0.0000
  47 H            8.1301    -3.1448    -0.1621 H            1    LIG   0.0000
  48 H            8.0251    -1.9170    -1.2336 H            1    LIG   0.0000
  49 H           -2.6405     0.4730     0.2934 H            1    LIG   0.0000
  50 H           -3.5613     3.7495    -0.3244 H            1    LIG   0.0000
  51 H           -5.3223     4.9837     0.7298 H            1    LIG   0.0000
  52 H           -6.9104     5.2295     2.4253 H            1    LIG   0.0000
  53 H           -7.5656     3.8316     2.9574 H            1    LIG   0.0000
  54 H           -6.4662     4.6187     3.8731 H            1    LIG   0.0000
  55 H           -5.6408     2.0427     3.6403 H            1    LIG   0.0000
  56 H           -4.2875     0.1756     3.6192 H            1    LIG   0.0000
  57 H           -3.8747    -0.3689     2.1360 H            1    LIG   0.0000
  58 H           -2.7755     0.4182     3.0520 H            1    LIG   0.0000
  59 H           -0.7738    -1.8613    -0.0115 H            1    LIG   0.0000
  60 H           -1.6693    -0.7801     0.8225 H            1    LIG   0.0000
  61 H           -1.6961    -0.7759    -0.8102 H            1    LIG   0.0000
@<TRIPOS>BOND
   1        1        2 1
   2        2        3 1
   3        3        4 1
   4        4        5 2
   5        4        6 1
   6        6        7 2
   7        7        8 1
   8        8        9 am
   9        9       10 2
  10        9       11 1
  11       11       12 1
  12       12       13 1
  13       13       14 2
  14       14       15 1
  15       15       16 1
  16       16       11 1
  17       16       17 1
  18       17       18 ar
  19       17       19 ar
  20        7       20 1
  21       20       21 1
  22       21       22 1
  23       22       23 2
  24       22       24 am
  25       24       25 1
  26       25       26 ar
  27       26       27 ar
  28       27       28 ar
  29       28       29 1
  30       28       30 ar
  31       30       31 ar
  32       31       25 ar
  33       31       32 1
  34       21       33 2
  35       33        6 1
  36       33       34 1
  37       11       35 1
  38       16       36 1
  39        1       37 1
  40        1       38 1
  41        1       39 1
  42        2       40 1
  43        2       41 1
  44        8       42 1
  45       12       43 1
  46       12       44 1
  47       13       45 1
  48       14       46 1
  49       15       47 1
  50       15       48 1
  51       24       49 1
  52       26       50 1
  53       27       51 1
  54       29       52 1
  55       29       53 1
  56       29       54 1
  57       30       55 1
  58       32       56 1
  59       32       57 1
  60       32       58 1
  61       34       59 1
  62       34       60 1
  63       34       61 1

@<TRIPOS>MOLECULE

  61   63
SMALL
USER_CHARGES
@<TRIPOS>ATOM
   1 C1           4.2634    -3.1879     1.4497 C.3          1    LIG   0.0000
   2 C2           2.8505    -3.5327     1.0081 C.3          1    LIG   0.0000
   3 O3           2.0333    -2.3743     1.0889 O.3          1    LIG   0.0000
   4 C4           1.8249    -1.7509    -0.0442 C.2          1    LIG   0.0000
   5 O5           1.9894    -2.3260    -1.0845 O.2          1    LIG   0.0000
   6 C6           1.3955    -0.3665    -0.0415 C.2          1    LIG   0.0000
   7 C7           2.2922     0.6626    -0.0550 C.2          1    LIG   0.0000
   8 N8           3.6914     0.5731    -0.0821 N.am         1    LIG   0.0000
   9 C9           4.2992    -0.6546    -0.0984 C.2          1    LIG   0.0000
  10 O10          3.6342    -1.6534    -0.0895 O.2          1    LIG   0.0000
  11 C11          5.8163    -0.7515    -0.1278 C.3          1    LIG   0.0000
  12 C12          6.3496    -0.1041     1.1412 C.3          1    LIG   0.0000
  13 C13          7.8423    -0.3323     1.3250 C.2          1    LIG   0.0000
  14 C14          8.4941    -1.2889     0.6846 C.2          1    LIG   0.0000
  15 C15          7.7991    -2.2121    -0.3052 C.3          1    LIG   0.0000
  16 C16          6.2863    -2.1994    -0.1424 C.3          1    LIG   0.0000
  17 C17          5.6815    -2.9657    -1.3076 C.2          1    LIG   0.0000
  18 O18          6.3427    -3.1351    -2.3548 O.co2        1    LIG   0.0000
  19 O19          4.5600    -3.4118    -1.2215 O.co2        1    LIG  -1.0000
  20 S20          1.4027     2.1144    -0.0324 S.3          1    LIG   0.0000
  21 C21         -0.1456     1.4013    -0.0134 C.2          1    LIG   0.0000
  22 C22         -1.4145     2.1046     0.0081 C.2          1    LIG   0.0000
  23 O23         -1.4709     3.2513    -0.3412 O.2          1    LIG   0.0000
  24 N24         -2.5482     1.4597     0.4273 N.am         1    LIG   0.0000
  25 C25         -3.5774     2.1820     1.0429 C.ar         1    LIG   0.0000
  26 C26         -4.4141     2.9894     0.2789 C.ar         1    LIG   0.0000
  27 C27         -5.4373     3.7071     0.8906 C.ar         1    LIG   0.0000
  28 C28         -5.6154     3.6102     2.2670 C.ar         1    LIG   0.0000
  29 C29         -6.7317     4.3921     2.9404 C.3          1    LIG   0.0000
  30 C30         -4.7843     2.8056     3.0394 C.ar         1    LIG   0.0000
  31 C31         -3.7641     2.0916     2.4193 C.ar         1    LIG   0.0000
  32 C32         -2.8627     1.2158     3.2747 C.3          1    LIG   0.0000
  33 C33          0.0402     0.0525    -0.0199 C.2          1    LIG   0.0000
  34 C34         -1.1244    -0.9249    -0.0034 C.3          1    LIG   0.0000
  35 H            6.1718    -0.2710    -0.9295 H            1    LIG   0.0000
  36 H            6.0366    -2.6431     0.7183 H            1    LIG   0.0000
  37 H            4.8389    -4.0037     1.3928 H            1    LIG   0.0000
  38 H            4.6346    -2.4759     0.8536 H            1    LIG   0.0000
  39 H            4.2464    -2.8572     2.3933 H            1    LIG   0.0000
  40 H            2.8675    -3.8634     0.0645 H            1    LIG   0.0000
  41 H            2.4794    -4.2447     1.6042 H            1    LIG   0.0000
  42 H            4.2456     1.4055    -0.0895 H            1    LIG   0.0000
  43 H            6.1783     0.8801     1.0961 H            1    LIG   0.0000
  44 H            5.8664    -0.4908     1.9266 H            1    LIG   0.0000
  45 H            8.3481     0.2610     1.9513 H            1    LIG   0.0000
  46 H            9.4720    -1.4087     0.8560 H            1    LIG   0.0000
  47 H            8.1301    -3.1448    -0.1621 H            1    LIG   0.0000
  48 H            8.0251    -1.9170    -1.2336 H            1    LIG   0.0000
  49 H           -2.6405     0.4730     0.2934 H            1    LIG   0.0000
  50 H           -4.2802     3.0540    -0.7100 H            1    LIG   0.0000
  51 H           -6.0405     4.2886     0.3446 H            1    LIG   0.0000
  52 H           -7.2334     4.9165     2.2524 H            1    LIG   0.0000
  53 H           -7.3557     3.7571     3.3959 H            1    LIG   0.0000
  54 H           -6.3404     5.0170     3.6160 H            1    LIG   0.0000
  55 H           -4.9186     2.7412     4.0282 H            1    LIG   0.0000
  56 H           -3.1477     1.2781     4.2312 H            1    LIG   0.0000
  57 H           -2.9312     0.2666     2.9675 H            1    LIG   0.0000
  58 H           -1.9162     1.5267     3.1880 H            1    LIG   0.0000
  59 H           -0.7738    -1.8613    -0.0115 H            1    LIG   0.0000
  60 H           -1.6693    -0.7801     0.8225 H            1    LIG   0.0000
  61 H           -1.6961    -0.7759    -0.8102 H            1    LIG   0.0000
@<TRIPOS>BOND
   1        1        2 1
   2        2        3 1
   3        3        4 1
   4        4        5 2
   5        4        6 1
   6        6        7 2
   7        7        8 1
   8        8        9 am
   9        9       10 2
  10        9       11 1
  11       11       12 1
  12       12       13 1
  13       13       14 2
  14       14       15 1
  15       15       16 1
  16       16       11 1
  17       16       17 1
  18       17       18 ar
  19       17       19 ar
  20        7       20 1
  21       20       21 1
  22       21       22 1
  23       22       23 2
  24       22       24 am
  25       24       25 1
  26       25       26 ar
  27       26       27 ar
  28       27       28 ar
  29       28       29 1
  30       28       30 ar
  31       30       31 ar
  32       31       25 ar
  33       31       32 1
  34       21       33 2
  35       33        6 1
  36       33       34 1
  37       11       35 1
  38       16       36 1
  39        1       37 1
  40        1       38 1
  41        1       39 1
  42        2       40 1
  43        2       41 1
  44        8       42 1
  45       12       43 1
  46       12       44 1
  47       13       45 1
  48       14       46 1
  49       15       47 1
  50       15       48 1
  51       24       49 1
  52       26       50 1
  53       27       51 1
  54       29       52 1
  55       29       53 1
  56       29       54 1
  57       30       55 1
  58       32       56 1
  59       32       57 1
  60       32       58 1
  61       34       59 1
  62       34       60 1
  63       34       61 1

@<TRIPOS>MOLECULE

  61   63
SMALL
USER_CHARGES
@<TRIPOS>ATOM
   1 C1           0.5926    -4.2669     0.7602 C.3          1    LIG   0.0000
   2 C2           2.0132    -3.7924     1.0192 C.3          1    LIG   0.0000
   3 O3           2.0333    -2.3743     1.0889 O.3          1    LIG   0.0000
   4 C4           1.8249    -1.7509    -0.0442 C.2          1    LIG   0.0000
   5 O5           1.9894    -2.3260    -1.0845 O.2          1    LIG   0.0000
   6 C6           1.3955    -0.3665    -0.0415 C.2          1    LIG   0.0000
   7 C7           2.2922     0.6626    -0.0550 C.2          1    LIG   0.0000
   8 N8           3.6914     0.5731    -0.0821 N.am         1    LIG   0.0000
   9 C9           4.2992    -0.6546    -0.0984 C.2          1    LIG   0.0000
  10 O10          3.6342    -1.6534    -0.0895 O.2          1    LIG   0.0000
  11 C11          5.8163    -0.7515    -0.1278 C.3          1    LIG   0.0000
  12 C12          6.3496    -0.1041     1.1412 C.3          1    LIG   0.0000
  13 C13          7.8423    -0.3323     1.3250 C.2          1    LIG   0.0000
  14 C14          8.4941    -1.2889     0.6846 C.2          1    LIG   0.0000
  15 C15          7.7991    -2.2121    -0.3052 C.3          1    LIG   0.0000
  16 C16          6.2863    -2.1994    -0.1424 C.3          1    LIG   0.0000
  17 C17          5.6815    -2.9657    -1.3076 C.2          1    LIG   0.0000
  18 O18          6.3427    -3.1351    -2.3548 O.co2        1    LIG   0.0000
  19 O19          4.5600    -3.4118    -1.2215 O.co2        1    LIG  -1.0000
  20 S20          1.4027     2.1144    -0.0324 S.3          1    LIG   0.0000
  21 C21         -0.1456     1.4013    -0.0134 C.2          1    LIG   0.0000
  22 C22         -1.4145     2.1046     0.0081 C.2          1    LIG   0.0000
  23 O23         -1.4709     3.2513    -0.3412 O.2          1    LIG   0.0000
  24 N24         -2.5482     1.4597     0.4273 N.am         1    LIG   0.0000
  25 C25         -3.5774     2.1820     1.0429 C.ar         1    LIG   0.0000
  26 C26         -3.6995     2.1751     2.4289 C.ar         1    LIG   0.0000
  27 C27         -4.7222     2.8932     3.0410 C.ar         1    LIG   0.0000
  28 C28         -5.6173     3.6150     2.2580 C.ar         1    LIG   0.0000
  29 C29         -6.7365     4.4014     2.9216 C.3          1    LIG   0.0000
  30 C30         -5.5035     3.6283     0.8718 C.ar         1    LIG   0.0000
  31 C31         -4.4780     2.9077     0.2685 C.ar         1    LIG   0.0000
  32 C32         -4.3645     2.9303    -1.2473 C.3          1    LIG   0.0000
  33 C33          0.0402     0.0525    -0.0199 C.2          1    LIG   0.0000
  34 C34         -1.1244    -0.9249    -0.0034 C.3          1    LIG   0.0000
  35 H            6.1718    -0.2710    -0.9295 H            1    LIG   0.0000
  36 H            6.0366    -2.6431     0.7183 H            1    LIG   0.0000
  37 H            0.5784    -5.2656     0.7111 H            1    LIG   0.0000
  38 H           -0.0018    -3.9613     1.5041 H            1    LIG   0.0000
  39 H            0.2664    -3.8860    -0.1049 H            1    LIG   0.0000
  40 H            2.3393    -4.1733     1.8844 H            1    LIG   0.0000
  41 H            2.6075    -4.0980     0.2753 H            1    LIG   0.0000
  42 H            4.2456     1.4055    -0.0895 H            1    LIG   0.0000
  43 H            6.1783     0.8801     1.0961 H            1    LIG   0.0000
  44 H            5.8664    -0.4908     1.9266 H            1    LIG   0.0000
  45 H            8.3481     0.2610     1.9513 H            1    LIG   0.0000
  46 H            9.4720    -1.4087     0.8560 H            1    LIG   0.0000
  47 H            8.1301    -3.1448    -0.1621 H            1    LIG   0.0000
  48 H            8.0251    -1.9170    -1.2336 H            1    LIG   0.0000
  49 H           -2.6405     0.4730     0.2934 H            1    LIG   0.0000
  50 H           -3.0522     1.6540     2.9852 H            1    LIG   0.0000
  51 H           -4.8131     2.8904     4.0369 H            1    LIG   0.0000
  52 H           -6.6800     4.2891     3.9136 H            1    LIG   0.0000
  53 H           -6.6460     5.3700     2.6900 H            1    LIG   0.0000
  54 H           -7.6197     4.0623     2.5975 H            1    LIG   0.0000
  55 H           -6.1510     4.1496     0.3158 H            1    LIG   0.0000
  56 H           -5.0931     3.5000    -1.6277 H            1    LIG   0.0000
  57 H           -3.4759     3.3067    -1.5095 H            1    LIG   0.0000
  58 H           -4.4499     1.9992    -1.6020 H            1    LIG   0.0000
  59 H           -0.7738    -1.8613    -0.0115 H            1    LIG   0.0000
  60 H           -1.6693    -0.7801     0.8225 H            1    LIG   0.0000
  61 H           -1.6961    -0.7759    -0.8102 H            1    LIG   0.0000
@<TRIPOS>BOND
   1        1        2 1
   2        2        3 1
   3        3        4 1
   4        4        5 2
   5        4        6 1
   6        6        7 2
   7        7        8 1
   8        8        9 am
   9        9       10 2
  10        9       11 1
  11       11       12 1
  12       12       13 1
  13       13       14 2
  14       14       15 1
  15       15       16 1
  16       16       11 1
  17       16       17 1
  18       17       18 ar
  19       17       19 ar
  20        7       20 1
  21       20       21 1
  22       21       22 1
  23       22       23 2
  24       22       24 am
  25       24       25 1
  26       25       26 ar
  27       26       27 ar
  28       27       28 ar
  29       28       29 1
  30       28       30 ar
  31       30       31 ar
  32       31       25 ar
  33       31       32 1
  34       21       33 2
  35       33        6 1
  36       33       34 1
  37       11       35 1
  38       16       36 1
  39        1       37 1
  40        1       38 1
  41        1       39 1
  42        2       40 1
  43        2       41 1
  44        8       42 1
  45       12       43 1
  46       12       44 1
  47       13       45 1
  48       14       46 1
  49       15       47 1
  50       15       48 1
  51       24       49 1
  52       26       50 1
  53       27       51 1
  54       29       52 1
  55       29       53 1
  56       29       54 1
  57       30       55 1
  58       32       56 1
  59       32       57 1
  60       32       58 1
  61       34       59 1
  62       34       60 1
  63       34       61 1

@<TRIPOS>MOLECULE

  61   63
SMALL
USER_CHARGES
@<TRIPOS>ATOM
   1 C1           0.5926    -4.2669     0.7602 C.3          1    LIG   0.0000
   2 C2           2.0132    -3.7924     1.0192 C.3          1    LIG   0.0000
   3 O3           2.0333    -2.3743     1.0889 O.3          1    LIG   0.0000
   4 C4           1.8249    -1.7509    -0.0442 C.2          1    LIG   0.0000
   5 O5           1.9894    -2.3260    -1.0845 O.2          1    LIG   0.0000
   6 C6           1.3955    -0.3665    -0.0415 C.2          1    LIG   0.0000
   7 C7           2.2922     0.6626    -0.0550 C.2          1    LIG   0.0000
   8 N8           3.6914     0.5731    -0.0821 N.am         1    LIG   0.0000
   9 C9           4.2992    -0.6546    -0.0984 C.2          1    LIG   0.0000
  10 O10          3.6342    -1.6534    -0.0895 O.2          1    LIG   0.0000
  11 C11          5.8163    -0.7515    -0.1278 C.3          1    LIG   0.0000
  12 C12          6.3496    -0.1041     1.1412 C.3          1    LIG   0.0000
  13 C13          7.8423    -0.3323     1.3250 C.2          1    LIG   0.0000
  14 C14          8.4941    -1.2889     0.6846 C.2          1    LIG   0.0000
  15 C15          7.7991    -2.2121    -0.3052 C.3          1    LIG   0.0000
  16 C16          6.2863    -2.1994    -0.1424 C.3          1    LIG   0.0000
  17 C17          5.6815    -2.9657    -1.3076 C.2          1    LIG   0.0000
  18 O18          6.3427    -3.1351    -2.3548 O.co2        1    LIG   0.0000
  19 O19          4.5600    -3.4118    -1.2215 O.co2        1    LIG  -1.0000
  20 S20          1.4027     2.1144    -0.0324 S.3          1    LIG   0.0000
  21 C21         -0.1456     1.4013    -0.0134 C.2          1    LIG   0.0000
  22 C22         -1.4145     2.1046     0.0081 C.2          1    LIG   0.0000
  23 O23         -1.4709     3.2513    -0.3412 O.2          1    LIG   0.0000
  24 N24         -2.5482     1.4597     0.4273 N.am         1    LIG   0.0000
  25 C25         -3.5774     2.1820     1.0429 C.ar         1    LIG   0.0000
  26 C26         -4.9054     1.8879     0.7499 C.ar         1    LIG   0.0000
  27 C27         -5.9284     2.6055     1.3620 C.ar         1    LIG   0.0000
  28 C28         -5.6128     3.6150     2.2657 C.ar         1    LIG   0.0000
  29 C29         -6.7266     4.4020     2.9374 C.3          1    LIG   0.0000
  30 C30         -4.2883     3.9163     2.5654 C.ar         1    LIG   0.0000
  31 C31         -3.2721     3.1937     1.9488 C.ar         1    LIG   0.0000
  32 C32         -1.8287     3.5328     2.2849 C.3          1    LIG   0.0000
  33 C33          0.0402     0.0525    -0.0199 C.2          1    LIG   0.0000
  34 C34         -1.1244    -0.9249    -0.0034 C.3          1    LIG   0.0000
  35 H            6.1718    -0.2710    -0.9295 H            1    LIG   0.0000
  36 H            6.0366    -2.6431     0.7183 H            1    LIG   0.0000
  37 H            0.5784    -5.2656     0.7111 H            1    LIG   0.0000
  38 H           -0.0018    -3.9613     1.5041 H            1    LIG   0.0000
  39 H            0.2664    -3.8860    -0.1049 H            1    LIG   0.0000
  40 H            2.3393    -4.1733     1.8844 H            1    LIG   0.0000
  41 H            2.6075    -4.0980     0.2753 H            1    LIG   0.0000
  42 H            4.2456     1.4055    -0.0895 H            1    LIG   0.0000
  43 H            6.1783     0.8801     1.0961 H            1    LIG   0.0000
  44 H            5.8664    -0.4908     1.9266 H            1    LIG   0.0000
  45 H            8.3481     0.2610     1.9513 H            1    LIG   0.0000
  46 H            9.4720    -1.4087     0.8560 H            1    LIG   0.0000
  47 H            8.1301    -3.1448    -0.1621 H            1    LIG   0.0000
  48 H            8.0251    -1.9170    -1.2336 H            1    LIG   0.0000
  49 H           -2.6405     0.4730     0.2934 H            1    LIG   0.0000
  50 H           -5.1246     1.1608     0.0994 H            1    LIG   0.0000
  51 H           -6.8840     2.3970     1.1537 H            1    LIG   0.0000
  52 H           -7.6122     4.0657     2.6173 H            1    LIG   0.0000
  53 H           -6.6649     4.2871     3.9288 H            1    LIG   0.0000
  54 H           -6.6352     5.3710     2.7078 H            1    LIG   0.0000
  55 H           -4.0694     4.6435     3.2160 H            1    LIG   0.0000
  56 H           -1.8079     4.2801     2.9490 H            1    LIG   0.0000
  57 H           -1.3792     2.7286     2.6737 H            1    LIG   0.0000
  58 H           -1.3497     3.8128     1.4529 H            1    LIG   0.0000
  59 H           -0.7738    -1.8613    -0.0115 H            1    LIG   0.0000
  60 H           -1.6693    -0.7801     0.8225 H            1    LIG   0.0000
  61 H           -1.6961    -0.7759    -0.8102 H            1    LIG   0.0000
@<TRIPOS>BOND
   1        1        2 1
   2        2        3 1
   3        3        4 1
   4        4        5 2
   5        4        6 1
   6        6        7 2
   7        7        8 1
   8        8        9 am
   9        9       10 2
  10        9       11 1
  11       11       12 1
  12       12       13 1
  13       13       14 2
  14       14       15 1
  15       15       16 1
  16       16       11 1
  17       16       17 1
  18       17       18 ar
  19       17       19 ar
  20        7       20 1
  21       20       21 1
  22       21       22 1
  23       22       23 2
  24       22       24 am
  25       24       25 1
  26       25       26 ar
  27       26       27 ar
  28       27       28 ar
  29       28       29 1
  30       28       30 ar
  31       30       31 ar
  32       31       25 ar
  33       31       32 1
  34       21       33 2
  35       33        6 1
  36       33       34 1
  37       11       35 1
  38       16       36 1
  39        1       37 1
  40        1       38 1
  41        1       39 1
  42        2       40 1
  43        2       41 1
  44        8       42 1
  45       12       43 1
  46       12       44 1
  47       13       45 1
  48       14       46 1
  49       15       47 1
  50       15       48 1
  51       24       49 1
  52       26       50 1
  53       27       51 1
  54       29       52 1
  55       29       53 1
  56       29       54 1
  57       30       55 1
  58       32       56 1
  59       32       57 1
  60       32       58 1
  61       34       59 1
  62       34       60 1
  63       34       61 1

@<TRIPOS>MOLECULE

  61   63
SMALL
USER_CHARGES
@<TRIPOS>ATOM
   1 C1           1.2248    -4.6119    -0.7663 C.3          1    LIG   0.0000
   2 C2           2.4252    -3.7306    -1.0711 C.3          1    LIG   0.0000
   3 O3           2.0045    -2.3788    -1.1799 O.3          1    LIG   0.0000
   4 C4           1.8249    -1.7509    -0.0442 C.2          1    LIG   0.0000
   5 O5           2.0158    -2.3219     0.9938 O.2          1    LIG   0.0000
   6 C6           1.3955    -0.3665    -0.0415 C.2          1    LIG   0.0000
   7 C7           2.2922     0.6626    -0.0550 C.2          1    LIG   0.0000
   8 N8           3.6914     0.5731    -0.0821 N.am         1    LIG   0.0000
   9 C9           4.2992    -0.6546    -0.0984 C.2          1    LIG   0.0000
  10 O10          3.6342    -1.6534    -0.0895 O.2          1    LIG   0.0000
  11 C11          5.8163    -0.7515    -0.1278 C.3          1    LIG   0.0000
  12 C12          6.3496    -0.1041     1.1412 C.3          1    LIG   0.0000
  13 C13          7.8423    -0.3323     1.3250 C.2          1    LIG   0.0000
  14 C14          8.4941    -1.2889     0.6846 C.2          1    LIG   0.0000
  15 C15          7.7991    -2.2121    -0.3052 C.3          1    LIG   0.0000
  16 C16          6.2863    -2.1994    -0.1424 C.3          1    LIG   0.0000
  17 C17          5.6815    -2.9657    -1.3076 C.2          1    LIG   0.0000
  18 O18          6.3427    -3.1351    -2.3548 O.co2        1    LIG   0.0000
  19 O19          4.5600    -3.4118    -1.2215 O.co2        1    LIG  -1.0000
  20 S20          1.4027     2.1144    -0.0324 S.3          1    LIG   0.0000
  21 C21         -0.1456     1.4013    -0.0134 C.2          1    LIG   0.0000
  22 C22         -1.4145     2.1046     0.0081 C.2          1    LIG   0.0000
  23 O23         -1.4709     3.2513    -0.3412 O.2          1    LIG   0.0000
  24 N24         -2.5482     1.4597     0.4273 N.am         1    LIG   0.0000
  25 C25         -3.5774     2.1820     1.0429 C.ar         1    LIG   0.0000
  26 C26         -3.3290     2.8811     2.2200 C.ar         1    LIG   0.0000
  27 C27         -4.3518     3.5993     2.8319 C.ar         1    LIG   0.0000
  28 C28         -5.6192     3.6121     2.2584 C.ar         1    LIG   0.0000
  29 C29         -6.7402     4.3951     2.9226 C.3          1    LIG   0.0000
  30 C30         -5.8774     2.9165     1.0818 C.ar         1    LIG   0.0000
  31 C31         -4.8489     2.2013     0.4770 C.ar         1    LIG   0.0000
  32 C32         -5.1441     1.4454    -0.8085 C.3          1    LIG   0.0000
  33 C33          0.0402     0.0525    -0.0199 C.2          1    LIG   0.0000
  34 C34         -1.1244    -0.9249    -0.0034 C.3          1    LIG   0.0000
  35 H            6.1718    -0.2710    -0.9295 H            1    LIG   0.0000
  36 H            6.0366    -2.6431     0.7183 H            1    LIG   0.0000
  37 H            1.5211    -5.5639    -0.6897 H            1    LIG   0.0000
  38 H            0.8087    -4.3219     0.0956 H            1    LIG   0.0000
  39 H            0.5549    -4.5296    -1.5042 H            1    LIG   0.0000
  40 H            3.0951    -3.8129    -0.3332 H            1    LIG   0.0000
  41 H            2.8413    -4.0206    -1.9330 H            1    LIG   0.0000
  42 H            4.2456     1.4055    -0.0895 H            1    LIG   0.0000
  43 H            6.1783     0.8801     1.0961 H            1    LIG   0.0000
  44 H            5.8664    -0.4908     1.9266 H            1    LIG   0.0000
  45 H            8.3481     0.2610     1.9513 H            1    LIG   0.0000
  46 H            9.4720    -1.4087     0.8560 H            1    LIG   0.0000
  47 H            8.1301    -3.1448    -0.1621 H            1    LIG   0.0000
  48 H            8.0251    -1.9170    -1.2336 H            1    LIG   0.0000
  49 H           -2.6405     0.4730     0.2934 H            1    LIG   0.0000
  50 H           -2.4154     2.8674     2.6263 H            1    LIG   0.0000
  51 H           -4.1769     4.1028     3.6780 H            1    LIG   0.0000
  52 H           -6.3941     4.8346     3.7516 H            1    LIG   0.0000
  53 H           -7.0785     5.0933     2.2916 H            1    LIG   0.0000
  54 H           -7.4855     3.7726     3.1617 H            1    LIG   0.0000
  55 H           -6.7912     2.9304     0.6758 H            1    LIG   0.0000
  56 H           -6.1033     1.5761    -1.0593 H            1    LIG   0.0000
  57 H           -4.5579     1.7917    -1.5409 H            1    LIG   0.0000
  58 H           -4.9653     0.4712    -0.6709 H            1    LIG   0.0000
  59 H           -0.7738    -1.8613    -0.0115 H            1    LIG   0.0000
  60 H           -1.6693    -0.7801     0.8225 H            1    LIG   0.0000
  61 H           -1.6961    -0.7759    -0.8102 H            1    LIG   0.0000
@<TRIPOS>BOND
   1        1        2 1
   2        2        3 1
   3        3        4 1
   4        4        5 2
   5        4        6 1
   6        6        7 2
   7        7        8 1
   8        8        9 am
   9        9       10 2
  10        9       11 1
  11       11       12 1
  12       12       13 1
  13       13       14 2
  14       14       15 1
  15       15       16 1
  16       16       11 1
  17       16       17 1
  18       17       18 ar
  19       17       19 ar
  20        7       20 1
  21       20       21 1
  22       21       22 1
  23       22       23 2
  24       22       24 am
  25       24       25 1
  26       25       26 ar
  27       26       27 ar
  28       27       28 ar
  29       28       29 1
  30       28       30 ar
  31       30       31 ar
  32       31       25 ar
  33       31       32 1
  34       21       33 2
  35       33        6 1
  36       33       34 1
  37       11       35 1
  38       16       36 1
  39        1       37 1
  40        1       38 1
  41        1       39 1
  42        2       40 1
  43        2       41 1
  44        8       42 1
  45       12       43 1
  46       12       44 1
  47       13       45 1
  48       14       46 1
  49       15       47 1
  50       15       48 1
  51       24       49 1
  52       26       50 1
  53       27       51 1
  54       29       52 1
  55       29       53 1
  56       29       54 1
  57       30       55 1
  58       32       56 1
  59       32       57 1
  60       32       58 1
  61       34       59 1
  62       34       60 1
  63       34       61 1

