@<TRIPOS>MOLECULE
*****
 61 63 0 0 0
SMALL
USER_CHARGES

@<TRIPOS>ATOM
      1 C1          1.2301   -4.6502   -1.2625 C.3     1  LIG1        0.0000
      2 C2          2.4252   -3.7306   -1.0711 C.3     1  LIG1        0.0000
      3 O3          2.0045   -2.3788   -1.1799 O.3     1  LIG1        0.0000
      4 C4          1.8249   -1.7509   -0.0442 C.2     1  LIG1        0.0000
      5 O5          2.0158   -2.3219    0.9938 O.2     1  LIG1        0.0000
      6 C6          1.3955   -0.3665   -0.0415 C.2     1  LIG1        0.0000
      7 C7          2.2922    0.6626   -0.0550 C.2     1  LIG1        0.0000
      8 N8          3.6914    0.5731   -0.0821 N.am    1  LIG1        0.0000
      9 C9          4.2992   -0.6546   -0.0984 C.2     1  LIG1        0.0000
     10 O10         3.6342   -1.6534   -0.0895 O.2     1  LIG1        0.0000
     11 C11         5.8163   -0.7515   -0.1278 C.3     1  LIG1        0.0000
     12 C12         6.3496   -0.1041    1.1412 C.3     1  LIG1        0.0000
     13 C13         7.8423   -0.3323    1.3250 C.2     1  LIG1        0.0000
     14 C14         8.4941   -1.2889    0.6846 C.2     1  LIG1        0.0000
     15 C15         7.7991   -2.2121   -0.3052 C.3     1  LIG1        0.0000
     16 C16         6.2863   -2.1994   -0.1424 C.3     1  LIG1        0.0000
     17 C17         5.6815   -2.9657   -1.3076 C.3     1  LIG1        0.0000
     18 O18         6.3427   -3.1351   -2.3548 O.2     1  LIG1        0.0000
     19 O19         4.5600   -3.4118   -1.2215 O.2     1  LIG1       -1.0000
     20 S20         1.4027    2.1144   -0.0324 S.3     1  LIG1        0.0000
     21 C21        -0.1456    1.4013   -0.0134 C.2     1  LIG1        0.0000
     22 C22        -1.4145    2.1046    0.0081 C.2     1  LIG1        0.0000
     23 O23        -1.4354    3.3044    0.0140 O.2     1  LIG1        0.0000
     24 N24        -2.5887    1.3990    0.0217 N.am    1  LIG1        0.0000
     25 C25        -3.8130    2.0776    0.0425 C.3     1  LIG1        0.0000
     26 C26        -3.8374    3.4688    0.0484 C.3     1  LIG1        0.0000
     27 C27        -5.0541    4.1435    0.0687 C.3     1  LIG1        0.0000
     28 C28        -6.2409    3.4176    0.0827 C.3     1  LIG1        0.0000
     29 C29        -7.5731    4.1496    0.1049 C.3     1  LIG1        0.0000
     30 C30        -6.2271    2.0267    0.0768 C.3     1  LIG1        0.0000
     31 C31        -5.0060    1.3606    0.0563 C.3     1  LIG1        0.0000
     32 C32        -5.0045   -0.1596    0.0500 C.3     1  LIG1        0.0000
     33 C33         0.0402    0.0525   -0.0199 C.2     1  LIG1        0.0000
     34 C34        -1.1244   -0.9249   -0.0034 C.3     1  LIG1        0.0000
     35 H           6.1718   -0.2710   -0.9295 H       1  LIG1        0.0000
     36 H           6.0366   -2.6431    0.7183 H       1  LIG1        0.0000
     37 H           1.5264   -5.6022   -1.1859 H       1  LIG1        0.0000
     38 H           0.5449   -4.4568   -0.5602 H       1  LIG1        0.0000
     39 H           0.8327   -4.4965   -2.1672 H       1  LIG1        0.0000
     40 H           2.8225   -3.8843   -0.1664 H       1  LIG1        0.0000
     41 H           3.1104   -3.9240   -1.7734 H       1  LIG1        0.0000
     42 H           4.2456    1.4055   -0.0895 H       1  LIG1        0.0000
     43 H           6.1783    0.8801    1.0961 H       1  LIG1        0.0000
     44 H           5.8664   -0.4908    1.9266 H       1  LIG1        0.0000
     45 H           8.3481    0.2610    1.9513 H       1  LIG1        0.0000
     46 H           9.4720   -1.4087    0.8560 H       1  LIG1        0.0000
     47 H           8.1301   -3.1448   -0.1621 H       1  LIG1        0.0000
     48 H           8.0251   -1.9170   -1.2336 H       1  LIG1        0.0000
     49 H          -2.5712    0.3991    0.0168 H       1  LIG1        0.0000
     50 H          -2.9802    3.9838    0.0381 H       1  LIG1        0.0000
     51 H          -5.0754    5.1432    0.0732 H       1  LIG1        0.0000
     52 H          -7.4112    5.1364    0.1067 H       1  LIG1        0.0000
     53 H          -8.1039    3.9003   -0.7051 H       1  LIG1        0.0000
     54 H          -8.0805    3.8936    0.9277 H       1  LIG1        0.0000
     55 H          -7.0844    1.5119    0.0871 H       1  LIG1        0.0000
     56 H          -5.9469   -0.4939    0.0619 H       1  LIG1        0.0000
     57 H          -4.5443   -0.4891   -0.7744 H       1  LIG1        0.0000
     58 H          -4.5213   -0.4958    0.8584 H       1  LIG1        0.0000
     59 H          -0.7738   -1.8613   -0.0115 H       1  LIG1        0.0000
     60 H          -1.6693   -0.7801    0.8225 H       1  LIG1        0.0000
     61 H          -1.6961   -0.7759   -0.8102 H       1  LIG1        0.0000
@<TRIPOS>UNITY_ATOM_ATTR
18 1
charge -1
@<TRIPOS>BOND
     1     1     2    1
     2     2     3    1
     3     3     4    1
     4     4     5    2
     5     4     6    1
     6     6     7    2
     7     7     8    1
     8     8     9   am
     9     9    10    2
    10     9    11    1
    11    11    12    1
    12    12    13    1
    13    13    14    2
    14    14    15    1
    15    15    16    1
    16    16    11    1
    17    16    17    1
    18    17    18    1
    19    17    19    2
    20     7    20    1
    21    20    21    1
    22    21    22    1
    23    22    23    2
    24    22    24   am
    25    24    25    1
    26    25    26   ar
    27    26    27   ar
    28    27    28   ar
    29    28    29    1
    30    28    30   ar
    31    30    31   ar
    32    31    25   ar
    33    31    32    1
    34    21    33    2
    35    33     6    1
    36    33    34    1
    37    11    35    1
    38    16    36    1
    39     1    37    1
    40     1    38    1
    41     1    39    1
    42     2    40    1
    43     2    41    1
    44     8    42    1
    45    12    43    1
    46    12    44    1
    47    13    45    1
    48    14    46    1
    49    15    47    1
    50    15    48    1
    51    24    49    1
    52    26    50    1
    53    27    51    1
    54    29    52    1
    55    29    53    1
    56    29    54    1
    57    30    55    1
    58    32    56    1
    59    32    57    1
    60    32    58    1
    61    34    59    1
    62    34    60    1
    63    34    61    1
