@<TRIPOS>MOLECULE

  38   40
SMALL
USER_CHARGES
@<TRIPOS>ATOM
   1 C1           0.7425     1.7029    -0.3229 C.3          1    LIG   0.0000
   2 C2           1.0000     1.0000     1.0000 C.3          1    LIG   0.0000
   3 C3          -0.3229     0.7425     1.7029 C.3          1    LIG   0.0000
   4 C4           1.7029    -0.3229     0.7425 C.3          1    LIG   0.0000
   5 C5           1.8760     1.8760     1.8760 C.3          1    LIG   0.0000
   6 C6           1.1506     3.1625     2.2342 C.3          1    LIG   0.0000
   7 C7           2.1682     4.0886     2.8861 C.3          1    LIG   0.0000
   8 C8           2.8974     3.4687     4.0776 C.2          1    LIG   0.0000
   9 C9           2.8042     2.1129     4.0781 C.2          1    LIG   0.0000
  10 S10          3.6729     1.4341     5.3698 S.3          1    LIG   0.0000
  11 C11          4.1482     2.9433     5.9955 C.2          1    LIG   0.0000
  12 N12          4.9125     3.0361     7.1182 N.pl3        1    LIG   0.0000
  13 C13          5.2086     4.3079     7.5087 C.2          1    LIG   0.0000
  14 S14          6.1221     4.4506     8.8237 S.2          1    LIG   0.0000
  15 N15          4.7307     5.3729     6.7846 N.2          1    LIG   0.0000
  16 C16          3.9937     5.2155     5.6960 C.2          1    LIG   0.0000
  17 N17          3.5472     6.3600     5.0253 N.pl3        1    LIG   0.0000
  18 C18          3.6487     3.9261     5.2015 C.2          1    LIG   0.0000
  19 C19          2.0948     1.1238     3.1720 C.3          1    LIG   0.0000
  20 H            2.7474     2.0717     1.4261 H            1    LIG   0.0000
  21 H            5.2327     2.2317     7.6186 H            1    LIG   0.0000
  22 H            0.1651     1.1255    -0.9002 H            1    LIG   0.0000
  23 H            0.2800     2.5732    -0.1535 H            1    LIG   0.0000
  24 H            1.6128     1.8723    -0.7853 H            1    LIG   0.0000
  25 H           -0.9002     0.1651     1.1255 H            1    LIG   0.0000
  26 H           -0.1535     0.2800     2.5732 H            1    LIG   0.0000
  27 H           -0.7853     1.6128     1.8723 H            1    LIG   0.0000
  28 H            1.1255    -0.9002     0.1651 H            1    LIG   0.0000
  29 H            2.5732    -0.1535     0.2800 H            1    LIG   0.0000
  30 H            1.8723    -0.7853     1.6128 H            1    LIG   0.0000
  31 H            0.4055     2.9690     2.8724 H            1    LIG   0.0000
  32 H            0.7802     3.5879     1.4084 H            1    LIG   0.0000
  33 H            2.8483     4.3426     2.1985 H            1    LIG   0.0000
  34 H            1.6906     4.9086     3.2015 H            1    LIG   0.0000
  35 H            2.9889     6.2703     4.2005 H            1    LIG   0.0000
  36 H            3.7864     7.2674     5.3709 H            1    LIG   0.0000
  37 H            1.2206     0.8455     3.5699 H            1    LIG   0.0000
  38 H            2.6635     0.3156     3.0187 H            1    LIG   0.0000
@<TRIPOS>BOND
   1        1        2 1
   2        2        3 1
   3        2        4 1
   4        2        5 1
   5        5        6 1
   6        6        7 1
   7        7        8 1
   8        8        9 2
   9        9       10 1
  10       10       11 1
  11       11       12 1
  12       12       13 1
  13       13       14 2
  14       13       15 1
  15       15       16 2
  16       16       17 1
  17       16       18 1
  18       18        8 1
  19       18       11 2
  20        9       19 1
  21       19        5 1
  22        5       20 1
  23       12       21 1
  24        1       22 1
  25        1       23 1
  26        1       24 1
  27        3       25 1
  28        3       26 1
  29        3       27 1
  30        4       28 1
  31        4       29 1
  32        4       30 1
  33        6       31 1
  34        6       32 1
  35        7       33 1
  36        7       34 1
  37       17       35 1
  38       17       36 1
  39       19       37 1
  40       19       38 1

@<TRIPOS>MOLECULE

  38   40
SMALL
USER_CHARGES
@<TRIPOS>ATOM
   1 C1           0.7425     1.7029    -0.3229 C.3          1    LIG   0.0000
   2 C2           1.0000     1.0000     1.0000 C.3          1    LIG   0.0000
   3 C3          -0.3229     0.7425     1.7029 C.3          1    LIG   0.0000
   4 C4           1.7029    -0.3229     0.7425 C.3          1    LIG   0.0000
   5 C5           1.8760     1.8760     1.8760 C.3          1    LIG   0.0000
   6 C6           1.0295     2.8894     2.6283 C.3          1    LIG   0.0000
   7 C7           1.9838     3.8840     3.2751 C.3          1    LIG   0.0000
   8 C8           3.0529     3.2364     4.1544 C.2          1    LIG   0.0000
   9 C9           3.2040     1.9148     3.8764 C.2          1    LIG   0.0000
  10 S10          4.4392     1.2231     4.8145 S.3          1    LIG   0.0000
  11 C11          4.7638     2.6641     5.6591 C.2          1    LIG   0.0000
  12 N12          5.7252     2.7203     6.6212 N.pl3        1    LIG   0.0000
  13 C13          5.8688     3.9361     7.2202 C.2          1    LIG   0.0000
  14 S14          7.0064     4.0387     8.3514 S.2          1    LIG   0.0000
  15 N15          5.0637     4.9828     6.8417 N.2          1    LIG   0.0000
  16 C16          4.1474     4.8645     5.8934 C.2          1    LIG   0.0000
  17 N17          3.3699     5.9848     5.5778 N.pl3        1    LIG   0.0000
  18 C18          3.9373     3.6395     5.1994 C.2          1    LIG   0.0000
  19 C19          2.5014     0.9717     2.9174 C.3          1    LIG   0.0000
  20 H            2.5798     2.3332     1.3323 H            1    LIG   0.0000
  21 H            6.2841     1.9292     6.8698 H            1    LIG   0.0000
  22 H            0.1651     1.1255    -0.9002 H            1    LIG   0.0000
  23 H            0.2800     2.5732    -0.1535 H            1    LIG   0.0000
  24 H            1.6128     1.8723    -0.7853 H            1    LIG   0.0000
  25 H           -0.9002     0.1651     1.1255 H            1    LIG   0.0000
  26 H           -0.1535     0.2800     2.5732 H            1    LIG   0.0000
  27 H           -0.7853     1.6128     1.8723 H            1    LIG   0.0000
  28 H            1.1255    -0.9002     0.1651 H            1    LIG   0.0000
  29 H            2.5732    -0.1535     0.2800 H            1    LIG   0.0000
  30 H            1.8723    -0.7853     1.6128 H            1    LIG   0.0000
  31 H            0.4875     2.4284     3.3310 H            1    LIG   0.0000
  32 H            0.4189     3.3636     1.9940 H            1    LIG   0.0000
  33 H            2.4419     4.3978     2.5497 H            1    LIG   0.0000
  34 H            1.4486     4.5112     3.8409 H            1    LIG   0.0000
  35 H            2.6706     5.9235     4.8657 H            1    LIG   0.0000
  36 H            3.5138     6.8464     6.0645 H            1    LIG   0.0000
  37 H            1.7983     0.4439     3.3939 H            1    LIG   0.0000
  38 H            3.1572     0.3470     2.4936 H            1    LIG   0.0000
@<TRIPOS>BOND
   1        1        2 1
   2        2        3 1
   3        2        4 1
   4        2        5 1
   5        5        6 1
   6        6        7 1
   7        7        8 1
   8        8        9 2
   9        9       10 1
  10       10       11 1
  11       11       12 1
  12       12       13 1
  13       13       14 2
  14       13       15 1
  15       15       16 2
  16       16       17 1
  17       16       18 1
  18       18        8 1
  19       18       11 2
  20        9       19 1
  21       19        5 1
  22        5       20 1
  23       12       21 1
  24        1       22 1
  25        1       23 1
  26        1       24 1
  27        3       25 1
  28        3       26 1
  29        3       27 1
  30        4       28 1
  31        4       29 1
  32        4       30 1
  33        6       31 1
  34        6       32 1
  35        7       33 1
  36        7       34 1
  37       17       35 1
  38       17       36 1
  39       19       37 1
  40       19       38 1

@<TRIPOS>MOLECULE

  38   40
SMALL
USER_CHARGES
@<TRIPOS>ATOM
   1 C1           0.7425     1.7029    -0.3229 C.3          1    LIG   0.0000
   2 C2           1.0000     1.0000     1.0000 C.3          1    LIG   0.0000
   3 C3          -0.3229     0.7425     1.7029 C.3          1    LIG   0.0000
   4 C4           1.7029    -0.3229     0.7425 C.3          1    LIG   0.0000
   5 C5           1.8760     1.8760     1.8760 C.3          1    LIG   0.0000
   6 C6           1.3961     3.3173     1.8338 C.3          1    LIG   0.0000
   7 C7           2.4587     4.1675     2.5167 C.3          1    LIG   0.0000
   8 C8           2.8124     3.7025     3.9288 C.2          1    LIG   0.0000
   9 C9           2.4279     2.4179     4.1494 C.2          1    LIG   0.0000
  10 S10          2.8849     1.8933     5.6987 S.3          1    LIG   0.0000
  11 C11          3.5584     3.3937     6.1350 C.2          1    LIG   0.0000
  12 N12          4.1131     3.5914     7.3623 N.pl3        1    LIG   0.0000
  13 C13          4.6047     4.8445     7.5759 C.2          1    LIG   0.0000
  14 S14          5.2793     5.1056     9.0115 S.2          1    LIG   0.0000
  15 N15          4.5062     5.7939     6.5881 N.2          1    LIG   0.0000
  16 C16          3.9576     5.5368     5.4109 C.2          1    LIG   0.0000
  17 N17          3.8970     6.5685     4.4670 N.pl3        1    LIG   0.0000
  18 C18          3.4336     4.2528     5.0899 C.2          1    LIG   0.0000
  19 C19          1.6925     1.3972     3.3009 C.3          1    LIG   0.0000
  20 H            2.8348     1.8114     1.5991 H            1    LIG   0.0000
  21 H            4.1566     2.8714     8.0549 H            1    LIG   0.0000
  22 H            0.1651     1.1255    -0.9002 H            1    LIG   0.0000
  23 H            0.2800     2.5732    -0.1535 H            1    LIG   0.0000
  24 H            1.6128     1.8723    -0.7853 H            1    LIG   0.0000
  25 H           -0.9002     0.1651     1.1255 H            1    LIG   0.0000
  26 H           -0.1535     0.2800     2.5732 H            1    LIG   0.0000
  27 H           -0.7853     1.6128     1.8723 H            1    LIG   0.0000
  28 H            1.1255    -0.9002     0.1651 H            1    LIG   0.0000
  29 H            2.5732    -0.1535     0.2800 H            1    LIG   0.0000
  30 H            1.8723    -0.7853     1.6128 H            1    LIG   0.0000
  31 H            0.5257     3.4027     2.3186 H            1    LIG   0.0000
  32 H            1.2796     3.6117     0.8852 H            1    LIG   0.0000
  33 H            3.2887     4.1411     1.9596 H            1    LIG   0.0000
  34 H            2.1228     5.1079     2.5700 H            1    LIG   0.0000
  35 H            3.4880     6.4020     3.5698 H            1    LIG   0.0000
  36 H            4.2628     7.4722     4.6898 H            1    LIG   0.0000
  37 H            0.7223     1.3718     3.5420 H            1    LIG   0.0000
  38 H            2.0897     0.4873     3.4209 H            1    LIG   0.0000
@<TRIPOS>BOND
   1        1        2 1
   2        2        3 1
   3        2        4 1
   4        2        5 1
   5        5        6 1
   6        6        7 1
   7        7        8 1
   8        8        9 2
   9        9       10 1
  10       10       11 1
  11       11       12 1
  12       12       13 1
  13       13       14 2
  14       13       15 1
  15       15       16 2
  16       16       17 1
  17       16       18 1
  18       18        8 1
  19       18       11 2
  20        9       19 1
  21       19        5 1
  22        5       20 1
  23       12       21 1
  24        1       22 1
  25        1       23 1
  26        1       24 1
  27        3       25 1
  28        3       26 1
  29        3       27 1
  30        4       28 1
  31        4       29 1
  32        4       30 1
  33        6       31 1
  34        6       32 1
  35        7       33 1
  36        7       34 1
  37       17       35 1
  38       17       36 1
  39       19       37 1
  40       19       38 1

@<TRIPOS>MOLECULE

  38   40
SMALL
USER_CHARGES
@<TRIPOS>ATOM
   1 C1           0.7425     1.7029    -0.3229 C.3          1    LIG   0.0000
   2 C2           1.0000     1.0000     1.0000 C.3          1    LIG   0.0000
   3 C3          -0.3229     0.7425     1.7029 C.3          1    LIG   0.0000
   4 C4           1.7029    -0.3229     0.7425 C.3          1    LIG   0.0000
   5 C5           1.8784     1.8784     1.8784 C.3          1    LIG   0.0000
   6 C6           1.5434     3.3535     1.7446 C.3          1    LIG   0.0000
   7 C7           0.0747     3.6060     2.0576 C.3          1    LIG   0.0000
   8 C8          -0.3707     3.0258     3.3932 C.2          1    LIG   0.0000
   9 C9           0.4693     2.0515     3.8625 C.2          1    LIG   0.0000
  10 S10         -0.1357     1.3973     5.3044 S.3          1    LIG   0.0000
  11 C11         -1.5077     2.3994     5.3650 C.2          1    LIG   0.0000
  12 N12         -2.4126     2.3055     6.3770 N.pl3        1    LIG   0.0000
  13 C13         -3.4478     3.1908     6.3087 C.2          1    LIG   0.0000
  14 S14         -4.5343     3.1251     7.4923 S.2          1    LIG   0.0000
  15 N15         -3.5097     4.0745     5.2601 N.2          1    LIG   0.0000
  16 C16         -2.5965     4.1051     4.3021 C.2          1    LIG   0.0000
  17 N17         -2.7507     5.0465     3.2759 N.pl3        1    LIG   0.0000
  18 C18         -1.4775     3.2225     4.2777 C.2          1    LIG   0.0000
  19 C19          1.7888     1.5016     3.3530 C.3          1    LIG   0.0000
  20 H            2.8266     1.7520     1.5870 H            1    LIG   0.0000
  21 H           -2.3250     1.6372     7.1157 H            1    LIG   0.0000
  22 H            0.1651     1.1255    -0.9002 H            1    LIG   0.0000
  23 H            0.2800     2.5732    -0.1535 H            1    LIG   0.0000
  24 H            1.6128     1.8723    -0.7853 H            1    LIG   0.0000
  25 H           -0.9002     0.1651     1.1255 H            1    LIG   0.0000
  26 H           -0.1535     0.2800     2.5732 H            1    LIG   0.0000
  27 H           -0.7853     1.6128     1.8723 H            1    LIG   0.0000
  28 H            1.1255    -0.9002     0.1651 H            1    LIG   0.0000
  29 H            2.5732    -0.1535     0.2800 H            1    LIG   0.0000
  30 H            1.8723    -0.7853     1.6128 H            1    LIG   0.0000
  31 H            1.7346     3.6494     0.8087 H            1    LIG   0.0000
  32 H            2.1090     3.8770     2.3818 H            1    LIG   0.0000
  33 H           -0.0799     4.5939     2.0744 H            1    LIG   0.0000
  34 H           -0.4785     3.1943     1.3334 H            1    LIG   0.0000
  35 H           -2.0784     5.0956     2.5373 H            1    LIG   0.0000
  36 H           -3.5331     5.6693     3.2821 H            1    LIG   0.0000
  37 H            1.8112     0.5072     3.4568 H            1    LIG   0.0000
  38 H            2.5499     1.9069     3.8594 H            1    LIG   0.0000
@<TRIPOS>BOND
   1        1        2 1
   2        2        3 1
   3        2        4 1
   4        2        5 1
   5        5        6 1
   6        6        7 1
   7        7        8 1
   8        8        9 2
   9        9       10 1
  10       10       11 1
  11       11       12 1
  12       12       13 1
  13       13       14 2
  14       13       15 1
  15       15       16 2
  16       16       17 1
  17       16       18 1
  18       18        8 1
  19       18       11 2
  20        9       19 1
  21       19        5 1
  22        5       20 1
  23       12       21 1
  24        1       22 1
  25        1       23 1
  26        1       24 1
  27        3       25 1
  28        3       26 1
  29        3       27 1
  30        4       28 1
  31        4       29 1
  32        4       30 1
  33        6       31 1
  34        6       32 1
  35        7       33 1
  36        7       34 1
  37       17       35 1
  38       17       36 1
  39       19       37 1
  40       19       38 1

@<TRIPOS>MOLECULE

  38   40
SMALL
USER_CHARGES
@<TRIPOS>ATOM
   1 C1           0.7425     1.7029    -0.3229 C.3          1    LIG   0.0000
   2 C2           1.0000     1.0000     1.0000 C.3          1    LIG   0.0000
   3 C3          -0.3229     0.7425     1.7029 C.3          1    LIG   0.0000
   4 C4           1.7029    -0.3229     0.7425 C.3          1    LIG   0.0000
   5 C5           1.8771     1.8771     1.8771 C.3          1    LIG   0.0000
   6 C6           1.0916     3.0638     2.4323 C.3          1    LIG   0.0000
   7 C7           1.0186     3.0919     3.9533 C.3          1    LIG   0.0000
   8 C8           0.5962     1.7279     4.4872 C.2          1    LIG   0.0000
   9 C9           1.4116     0.8105     3.9207 C.2          1    LIG   0.0000
  10 S10          0.9027    -0.7309     4.4372 S.3          1    LIG   0.0000
  11 C11         -0.3747    -0.1926     5.4116 C.2          1    LIG   0.0000
  12 N12         -1.1755    -1.0508     6.0976 N.pl3        1    LIG   0.0000
  13 C13         -2.1606    -0.4381     6.8084 C.2          1    LIG   0.0000
  14 S14         -3.1325    -1.4210     7.6301 S.2          1    LIG   0.0000
  15 N15         -2.2677     0.9304     6.7952 N.2          1    LIG   0.0000
  16 C16         -1.4460     1.7020     6.1057 C.2          1    LIG   0.0000
  17 N17         -1.6363     3.0880     6.1532 N.pl3        1    LIG   0.0000
  18 C18         -0.3977     1.1593     5.3276 C.2          1    LIG   0.0000
  19 C19          2.5516     1.0541     2.9588 C.3          1    LIG   0.0000
  20 H            2.6001     2.2482     1.2944 H            1    LIG   0.0000
  21 H           -1.0517    -2.0430     6.0812 H            1    LIG   0.0000
  22 H            0.1651     1.1255    -0.9002 H            1    LIG   0.0000
  23 H            0.2800     2.5732    -0.1535 H            1    LIG   0.0000
  24 H            1.6128     1.8723    -0.7853 H            1    LIG   0.0000
  25 H           -0.9002     0.1651     1.1255 H            1    LIG   0.0000
  26 H           -0.1535     0.2800     2.5732 H            1    LIG   0.0000
  27 H           -0.7853     1.6128     1.8723 H            1    LIG   0.0000
  28 H            1.1255    -0.9002     0.1651 H            1    LIG   0.0000
  29 H            2.5732    -0.1535     0.2800 H            1    LIG   0.0000
  30 H            1.8723    -0.7853     1.6128 H            1    LIG   0.0000
  31 H            0.1596     3.0218     2.0722 H            1    LIG   0.0000
  32 H            1.5312     3.9066     2.1217 H            1    LIG   0.0000
  33 H            1.9178     3.3268     4.3225 H            1    LIG   0.0000
  34 H            0.3510     3.7793     4.2390 H            1    LIG   0.0000
  35 H           -1.0283     3.6940     5.6405 H            1    LIG   0.0000
  36 H           -2.3804     3.4720     6.6999 H            1    LIG   0.0000
  37 H            2.9086     0.1948     2.5927 H            1    LIG   0.0000
  38 H            3.2929     1.5642     3.3949 H            1    LIG   0.0000
@<TRIPOS>BOND
   1        1        2 1
   2        2        3 1
   3        2        4 1
   4        2        5 1
   5        5        6 1
   6        6        7 1
   7        7        8 1
   8        8        9 2
   9        9       10 1
  10       10       11 1
  11       11       12 1
  12       12       13 1
  13       13       14 2
  14       13       15 1
  15       15       16 2
  16       16       17 1
  17       16       18 1
  18       18        8 1
  19       18       11 2
  20        9       19 1
  21       19        5 1
  22        5       20 1
  23       12       21 1
  24        1       22 1
  25        1       23 1
  26        1       24 1
  27        3       25 1
  28        3       26 1
  29        3       27 1
  30        4       28 1
  31        4       29 1
  32        4       30 1
  33        6       31 1
  34        6       32 1
  35        7       33 1
  36        7       34 1
  37       17       35 1
  38       17       36 1
  39       19       37 1
  40       19       38 1

@<TRIPOS>MOLECULE

  38   40
SMALL
USER_CHARGES
@<TRIPOS>ATOM
   1 C1           0.7425     1.7029    -0.3229 C.3          1    LIG   0.0000
   2 C2           1.0000     1.0000     1.0000 C.3          1    LIG   0.0000
   3 C3          -0.3229     0.7425     1.7029 C.3          1    LIG   0.0000
   4 C4           1.7029    -0.3229     0.7425 C.3          1    LIG   0.0000
   5 C5           1.8742     1.8742     1.8742 C.3          1    LIG   0.0000
   6 C6           1.1906     3.2203     2.0246 C.3          1    LIG   0.0000
   7 C7           1.1634     3.8231     3.4335 C.3          1    LIG   0.0000
   8 C8           2.4432     3.4472     4.1627 C.2          1    LIG   0.0000
   9 C9           2.7433     2.1336     3.9602 C.2          1    LIG   0.0000
  10 S10          4.1628     1.8063     4.8562 S.3          1    LIG   0.0000
  11 C11          4.4021     3.3917     5.4173 C.2          1    LIG   0.0000
  12 N12          5.4984     3.6799     6.1710 N.pl3        1    LIG   0.0000
  13 C13          5.5870     4.9861     6.5446 C.2          1    LIG   0.0000
  14 S14          6.8687     5.3873     7.4305 S.2          1    LIG   0.0000
  15 N15          4.6224     5.8793     6.1526 N.2          1    LIG   0.0000
  16 C16          3.5823     5.5206     5.4163 C.2          1    LIG   0.0000
  17 N17          2.6429     6.4920     5.0498 N.pl3        1    LIG   0.0000
  18 C18          3.3843     4.1745     4.9543 C.2          1    LIG   0.0000
  19 C19          2.0467     1.0638     3.1369 C.3          1    LIG   0.0000
  20 H            2.7639     2.0000     1.4353 H            1    LIG   0.0000
  21 H            6.1784     2.9931     6.4276 H            1    LIG   0.0000
  22 H            0.1651     1.1255    -0.9002 H            1    LIG   0.0000
  23 H            0.2800     2.5732    -0.1535 H            1    LIG   0.0000
  24 H            1.6128     1.8723    -0.7853 H            1    LIG   0.0000
  25 H           -0.9002     0.1651     1.1255 H            1    LIG   0.0000
  26 H           -0.1535     0.2800     2.5732 H            1    LIG   0.0000
  27 H           -0.7853     1.6128     1.8723 H            1    LIG   0.0000
  28 H            1.1255    -0.9002     0.1651 H            1    LIG   0.0000
  29 H            2.5732    -0.1535     0.2800 H            1    LIG   0.0000
  30 H            1.8723    -0.7853     1.6128 H            1    LIG   0.0000
  31 H            0.2434     3.1149     1.7215 H            1    LIG   0.0000
  32 H            1.6619     3.8683     1.4264 H            1    LIG   0.0000
  33 H            1.0947     4.8187     3.3700 H            1    LIG   0.0000
  34 H            0.3754     3.4659     3.9350 H            1    LIG   0.0000
  35 H            1.8515     6.2377     4.4939 H            1    LIG   0.0000
  36 H            2.7634     7.4401     5.3440 H            1    LIG   0.0000
  37 H            1.1721     0.7862     3.5343 H            1    LIG   0.0000
  38 H            2.6203     0.2568     2.9967 H            1    LIG   0.0000
@<TRIPOS>BOND
   1        1        2 1
   2        2        3 1
   3        2        4 1
   4        2        5 1
   5        5        6 1
   6        6        7 1
   7        7        8 1
   8        8        9 2
   9        9       10 1
  10       10       11 1
  11       11       12 1
  12       12       13 1
  13       13       14 2
  14       13       15 1
  15       15       16 2
  16       16       17 1
  17       16       18 1
  18       18        8 1
  19       18       11 2
  20        9       19 1
  21       19        5 1
  22        5       20 1
  23       12       21 1
  24        1       22 1
  25        1       23 1
  26        1       24 1
  27        3       25 1
  28        3       26 1
  29        3       27 1
  30        4       28 1
  31        4       29 1
  32        4       30 1
  33        6       31 1
  34        6       32 1
  35        7       33 1
  36        7       34 1
  37       17       35 1
  38       17       36 1
  39       19       37 1
  40       19       38 1

