@<TRIPOS>MOLECULE
*****
 38 40 0 0 0
SMALL
USER_CHARGES

@<TRIPOS>ATOM
      1 C1          0.7425    1.7029   -0.3229 C.3     1  LIG1        0.0000
      2 C2          1.0000    1.0000    1.0000 C.3     1  LIG1        0.0000
      3 C3         -0.3229    0.7425    1.7029 C.3     1  LIG1        0.0000
      4 C4          1.7029   -0.3229    0.7425 C.3     1  LIG1        0.0000
      5 C5          1.8760    1.8760    1.8760 C.3     1  LIG1        0.0000
      6 C6          1.3961    3.3173    1.8338 C.3     1  LIG1        0.0000
      7 C7          2.4587    4.1675    2.5167 C.3     1  LIG1        0.0000
      8 C8          2.8124    3.7025    3.9288 C.2     1  LIG1        0.0000
      9 C9          2.4279    2.4179    4.1494 C.2     1  LIG1        0.0000
     10 S10         2.8849    1.8933    5.6987 S.3     1  LIG1        0.0000
     11 C11         3.5584    3.3937    6.1350 C.2     1  LIG1        0.0000
     12 N12         4.1131    3.5914    7.3623 N.pl3   1  LIG1        0.0000
     13 C13         4.6047    4.8445    7.5759 C.2     1  LIG1        0.0000
     14 S14         5.2793    5.1056    9.0115 S.2     1  LIG1        0.0000
     15 N15         4.5062    5.7939    6.5881 N.2     1  LIG1        0.0000
     16 C16         3.9576    5.5368    5.4109 C.2     1  LIG1        0.0000
     17 N17         3.8970    6.5685    4.4670 N.pl3   1  LIG1        0.0000
     18 C18         3.4336    4.2528    5.0899 C.2     1  LIG1        0.0000
     19 C19         1.6925    1.3972    3.3009 C.3     1  LIG1        0.0000
     20 H           2.8348    1.8114    1.5991 H       1  LIG1        0.0000
     21 H           4.1566    2.8714    8.0549 H       1  LIG1        0.0000
     22 H           0.1651    1.1255   -0.9002 H       1  LIG1        0.0000
     23 H           0.2800    2.5732   -0.1535 H       1  LIG1        0.0000
     24 H           1.6128    1.8723   -0.7853 H       1  LIG1        0.0000
     25 H          -0.9002    0.1651    1.1255 H       1  LIG1        0.0000
     26 H          -0.1535    0.2800    2.5732 H       1  LIG1        0.0000
     27 H          -0.7853    1.6128    1.8723 H       1  LIG1        0.0000
     28 H           1.1255   -0.9002    0.1651 H       1  LIG1        0.0000
     29 H           2.5732   -0.1535    0.2800 H       1  LIG1        0.0000
     30 H           1.8723   -0.7853    1.6128 H       1  LIG1        0.0000
     31 H           0.5257    3.4027    2.3186 H       1  LIG1        0.0000
     32 H           1.2796    3.6117    0.8852 H       1  LIG1        0.0000
     33 H           3.2887    4.1411    1.9596 H       1  LIG1        0.0000
     34 H           2.1228    5.1079    2.5700 H       1  LIG1        0.0000
     35 H           3.4880    6.4020    3.5698 H       1  LIG1        0.0000
     36 H           4.2628    7.4722    4.6898 H       1  LIG1        0.0000
     37 H           0.7223    1.3718    3.5420 H       1  LIG1        0.0000
     38 H           2.0897    0.4873    3.4209 H       1  LIG1        0.0000
@<TRIPOS>BOND
     1     1     2    1
     2     2     3    1
     3     2     4    1
     4     2     5    1
     5     5     6    1
     6     6     7    1
     7     7     8    1
     8     8     9    2
     9     9    10    1
    10    10    11    1
    11    11    12    1
    12    12    13    1
    13    13    14    2
    14    13    15    1
    15    15    16    2
    16    16    17    1
    17    16    18    1
    18    18     8    1
    19    18    11    2
    20     9    19    1
    21    19     5    1
    22     5    20    1
    23    12    21    1
    24     1    22    1
    25     1    23    1
    26     1    24    1
    27     3    25    1
    28     3    26    1
    29     3    27    1
    30     4    28    1
    31     4    29    1
    32     4    30    1
    33     6    31    1
    34     6    32    1
    35     7    33    1
    36     7    34    1
    37    17    35    1
    38    17    36    1
    39    19    37    1
    40    19    38    1
