@<TRIPOS>MOLECULE
*****
 38 40 0 0 0
SMALL
USER_CHARGES

@<TRIPOS>ATOM
      1 C1          0.7425    1.7029   -0.3229 C.3     1  LIG1        0.0000
      2 C2          1.0000    1.0000    1.0000 C.3     1  LIG1        0.0000
      3 C3         -0.3229    0.7425    1.7029 C.3     1  LIG1        0.0000
      4 C4          1.7029   -0.3229    0.7425 C.3     1  LIG1        0.0000
      5 C5          1.8771    1.8771    1.8771 C.3     1  LIG1        0.0000
      6 C6          1.0916    3.0638    2.4323 C.3     1  LIG1        0.0000
      7 C7          1.0186    3.0919    3.9533 C.3     1  LIG1        0.0000
      8 C8          0.5962    1.7279    4.4872 C.2     1  LIG1        0.0000
      9 C9          1.4116    0.8105    3.9207 C.2     1  LIG1        0.0000
     10 S10         0.9027   -0.7309    4.4372 S.3     1  LIG1        0.0000
     11 C11        -0.3747   -0.1926    5.4116 C.2     1  LIG1        0.0000
     12 N12        -1.1755   -1.0508    6.0976 N.pl3   1  LIG1        0.0000
     13 C13        -2.1606   -0.4381    6.8084 C.2     1  LIG1        0.0000
     14 S14        -3.1325   -1.4210    7.6301 S.2     1  LIG1        0.0000
     15 N15        -2.2677    0.9304    6.7952 N.2     1  LIG1        0.0000
     16 C16        -1.4460    1.7020    6.1057 C.2     1  LIG1        0.0000
     17 N17        -1.6363    3.0880    6.1532 N.pl3   1  LIG1        0.0000
     18 C18        -0.3977    1.1593    5.3276 C.2     1  LIG1        0.0000
     19 C19         2.5516    1.0541    2.9588 C.3     1  LIG1        0.0000
     20 H           2.6001    2.2482    1.2944 H       1  LIG1        0.0000
     21 H          -1.0517   -2.0430    6.0812 H       1  LIG1        0.0000
     22 H           0.1651    1.1255   -0.9002 H       1  LIG1        0.0000
     23 H           0.2800    2.5732   -0.1535 H       1  LIG1        0.0000
     24 H           1.6128    1.8723   -0.7853 H       1  LIG1        0.0000
     25 H          -0.9002    0.1651    1.1255 H       1  LIG1        0.0000
     26 H          -0.1535    0.2800    2.5732 H       1  LIG1        0.0000
     27 H          -0.7853    1.6128    1.8723 H       1  LIG1        0.0000
     28 H           1.1255   -0.9002    0.1651 H       1  LIG1        0.0000
     29 H           2.5732   -0.1535    0.2800 H       1  LIG1        0.0000
     30 H           1.8723   -0.7853    1.6128 H       1  LIG1        0.0000
     31 H           0.1596    3.0218    2.0722 H       1  LIG1        0.0000
     32 H           1.5312    3.9066    2.1217 H       1  LIG1        0.0000
     33 H           1.9178    3.3268    4.3225 H       1  LIG1        0.0000
     34 H           0.3510    3.7793    4.2390 H       1  LIG1        0.0000
     35 H          -1.0283    3.6940    5.6405 H       1  LIG1        0.0000
     36 H          -2.3804    3.4720    6.6999 H       1  LIG1        0.0000
     37 H           2.9086    0.1948    2.5927 H       1  LIG1        0.0000
     38 H           3.2929    1.5642    3.3949 H       1  LIG1        0.0000
@<TRIPOS>BOND
     1     1     2    1
     2     2     3    1
     3     2     4    1
     4     2     5    1
     5     5     6    1
     6     6     7    1
     7     7     8    1
     8     8     9    2
     9     9    10    1
    10    10    11    1
    11    11    12    1
    12    12    13    1
    13    13    14    2
    14    13    15    1
    15    15    16    2
    16    16    17    1
    17    16    18    1
    18    18     8    1
    19    18    11    2
    20     9    19    1
    21    19     5    1
    22     5    20    1
    23    12    21    1
    24     1    22    1
    25     1    23    1
    26     1    24    1
    27     3    25    1
    28     3    26    1
    29     3    27    1
    30     4    28    1
    31     4    29    1
    32     4    30    1
    33     6    31    1
    34     6    32    1
    35     7    33    1
    36     7    34    1
    37    17    35    1
    38    17    36    1
    39    19    37    1
    40    19    38    1
