@<TRIPOS>MOLECULE
*****
 38 40 0 0 0
SMALL
USER_CHARGES

@<TRIPOS>ATOM
      1 C1          0.7425    1.7029   -0.3229 C.3     1  LIG1        0.0000
      2 C2          1.0000    1.0000    1.0000 C.3     1  LIG1        0.0000
      3 C3         -0.3229    0.7425    1.7029 C.3     1  LIG1        0.0000
      4 C4          1.7029   -0.3229    0.7425 C.3     1  LIG1        0.0000
      5 C5          1.8784    1.8784    1.8784 C.3     1  LIG1        0.0000
      6 C6          1.5434    3.3535    1.7446 C.3     1  LIG1        0.0000
      7 C7          0.0747    3.6060    2.0576 C.3     1  LIG1        0.0000
      8 C8         -0.3707    3.0258    3.3932 C.2     1  LIG1        0.0000
      9 C9          0.4693    2.0515    3.8625 C.2     1  LIG1        0.0000
     10 S10        -0.1357    1.3973    5.3044 S.3     1  LIG1        0.0000
     11 C11        -1.5077    2.3994    5.3650 C.2     1  LIG1        0.0000
     12 N12        -2.4126    2.3055    6.3770 N.pl3   1  LIG1        0.0000
     13 C13        -3.4478    3.1908    6.3087 C.2     1  LIG1        0.0000
     14 S14        -4.5343    3.1251    7.4923 S.2     1  LIG1        0.0000
     15 N15        -3.5097    4.0745    5.2601 N.2     1  LIG1        0.0000
     16 C16        -2.5965    4.1051    4.3021 C.2     1  LIG1        0.0000
     17 N17        -2.7507    5.0465    3.2759 N.pl3   1  LIG1        0.0000
     18 C18        -1.4775    3.2225    4.2777 C.2     1  LIG1        0.0000
     19 C19         1.7888    1.5016    3.3530 C.3     1  LIG1        0.0000
     20 H           2.8266    1.7520    1.5870 H       1  LIG1        0.0000
     21 H          -2.3250    1.6372    7.1157 H       1  LIG1        0.0000
     22 H           0.1651    1.1255   -0.9002 H       1  LIG1        0.0000
     23 H           0.2800    2.5732   -0.1535 H       1  LIG1        0.0000
     24 H           1.6128    1.8723   -0.7853 H       1  LIG1        0.0000
     25 H          -0.9002    0.1651    1.1255 H       1  LIG1        0.0000
     26 H          -0.1535    0.2800    2.5732 H       1  LIG1        0.0000
     27 H          -0.7853    1.6128    1.8723 H       1  LIG1        0.0000
     28 H           1.1255   -0.9002    0.1651 H       1  LIG1        0.0000
     29 H           2.5732   -0.1535    0.2800 H       1  LIG1        0.0000
     30 H           1.8723   -0.7853    1.6128 H       1  LIG1        0.0000
     31 H           1.7346    3.6494    0.8087 H       1  LIG1        0.0000
     32 H           2.1090    3.8770    2.3818 H       1  LIG1        0.0000
     33 H          -0.0799    4.5939    2.0744 H       1  LIG1        0.0000
     34 H          -0.4785    3.1943    1.3334 H       1  LIG1        0.0000
     35 H          -2.0784    5.0956    2.5373 H       1  LIG1        0.0000
     36 H          -3.5331    5.6693    3.2821 H       1  LIG1        0.0000
     37 H           1.8112    0.5072    3.4568 H       1  LIG1        0.0000
     38 H           2.5499    1.9069    3.8594 H       1  LIG1        0.0000
@<TRIPOS>BOND
     1     1     2    1
     2     2     3    1
     3     2     4    1
     4     2     5    1
     5     5     6    1
     6     6     7    1
     7     7     8    1
     8     8     9    2
     9     9    10    1
    10    10    11    1
    11    11    12    1
    12    12    13    1
    13    13    14    2
    14    13    15    1
    15    15    16    2
    16    16    17    1
    17    16    18    1
    18    18     8    1
    19    18    11    2
    20     9    19    1
    21    19     5    1
    22     5    20    1
    23    12    21    1
    24     1    22    1
    25     1    23    1
    26     1    24    1
    27     3    25    1
    28     3    26    1
    29     3    27    1
    30     4    28    1
    31     4    29    1
    32     4    30    1
    33     6    31    1
    34     6    32    1
    35     7    33    1
    36     7    34    1
    37    17    35    1
    38    17    36    1
    39    19    37    1
    40    19    38    1
