@<TRIPOS>MOLECULE
*****
 38 40 0 0 0
SMALL
USER_CHARGES

@<TRIPOS>ATOM
      1 C1          0.7425    1.7029   -0.3229 C.3     1  LIG1        0.0000
      2 C2          1.0000    1.0000    1.0000 C.3     1  LIG1        0.0000
      3 C3         -0.3229    0.7425    1.7029 C.3     1  LIG1        0.0000
      4 C4          1.7029   -0.3229    0.7425 C.3     1  LIG1        0.0000
      5 C5          1.8742    1.8742    1.8742 C.3     1  LIG1        0.0000
      6 C6          1.1906    3.2203    2.0246 C.3     1  LIG1        0.0000
      7 C7          1.1634    3.8231    3.4335 C.3     1  LIG1        0.0000
      8 C8          2.4432    3.4472    4.1627 C.2     1  LIG1        0.0000
      9 C9          2.7433    2.1336    3.9602 C.2     1  LIG1        0.0000
     10 S10         4.1628    1.8063    4.8562 S.3     1  LIG1        0.0000
     11 C11         4.4021    3.3917    5.4173 C.2     1  LIG1        0.0000
     12 N12         5.4984    3.6799    6.1710 N.pl3   1  LIG1        0.0000
     13 C13         5.5870    4.9861    6.5446 C.2     1  LIG1        0.0000
     14 S14         6.8687    5.3873    7.4305 S.2     1  LIG1        0.0000
     15 N15         4.6224    5.8793    6.1526 N.2     1  LIG1        0.0000
     16 C16         3.5823    5.5206    5.4163 C.2     1  LIG1        0.0000
     17 N17         2.6429    6.4920    5.0498 N.pl3   1  LIG1        0.0000
     18 C18         3.3843    4.1745    4.9543 C.2     1  LIG1        0.0000
     19 C19         2.0467    1.0638    3.1369 C.3     1  LIG1        0.0000
     20 H           2.7639    2.0000    1.4353 H       1  LIG1        0.0000
     21 H           6.1784    2.9931    6.4276 H       1  LIG1        0.0000
     22 H           0.1651    1.1255   -0.9002 H       1  LIG1        0.0000
     23 H           0.2800    2.5732   -0.1535 H       1  LIG1        0.0000
     24 H           1.6128    1.8723   -0.7853 H       1  LIG1        0.0000
     25 H          -0.9002    0.1651    1.1255 H       1  LIG1        0.0000
     26 H          -0.1535    0.2800    2.5732 H       1  LIG1        0.0000
     27 H          -0.7853    1.6128    1.8723 H       1  LIG1        0.0000
     28 H           1.1255   -0.9002    0.1651 H       1  LIG1        0.0000
     29 H           2.5732   -0.1535    0.2800 H       1  LIG1        0.0000
     30 H           1.8723   -0.7853    1.6128 H       1  LIG1        0.0000
     31 H           0.2434    3.1149    1.7215 H       1  LIG1        0.0000
     32 H           1.6619    3.8683    1.4264 H       1  LIG1        0.0000
     33 H           1.0947    4.8187    3.3700 H       1  LIG1        0.0000
     34 H           0.3754    3.4659    3.9350 H       1  LIG1        0.0000
     35 H           1.8515    6.2377    4.4939 H       1  LIG1        0.0000
     36 H           2.7634    7.4401    5.3440 H       1  LIG1        0.0000
     37 H           1.1721    0.7862    3.5343 H       1  LIG1        0.0000
     38 H           2.6203    0.2568    2.9967 H       1  LIG1        0.0000
@<TRIPOS>BOND
     1     1     2    1
     2     2     3    1
     3     2     4    1
     4     2     5    1
     5     5     6    1
     6     6     7    1
     7     7     8    1
     8     8     9    2
     9     9    10    1
    10    10    11    1
    11    11    12    1
    12    12    13    1
    13    13    14    2
    14    13    15    1
    15    15    16    2
    16    16    17    1
    17    16    18    1
    18    18     8    1
    19    18    11    2
    20     9    19    1
    21    19     5    1
    22     5    20    1
    23    12    21    1
    24     1    22    1
    25     1    23    1
    26     1    24    1
    27     3    25    1
    28     3    26    1
    29     3    27    1
    30     4    28    1
    31     4    29    1
    32     4    30    1
    33     6    31    1
    34     6    32    1
    35     7    33    1
    36     7    34    1
    37    17    35    1
    38    17    36    1
    39    19    37    1
    40    19    38    1
