@<TRIPOS>MOLECULE
*****
 38 40 0 0 0
SMALL
USER_CHARGES

@<TRIPOS>ATOM
      1 C1          0.7425    1.7029   -0.3229 C.3     1  LIG1        0.0000
      2 C2          1.0000    1.0000    1.0000 C.3     1  LIG1        0.0000
      3 C3         -0.3229    0.7425    1.7029 C.3     1  LIG1        0.0000
      4 C4          1.7029   -0.3229    0.7425 C.3     1  LIG1        0.0000
      5 C5          1.8760    1.8760    1.8760 C.3     1  LIG1        0.0000
      6 C6          1.0295    2.8894    2.6283 C.3     1  LIG1        0.0000
      7 C7          1.9838    3.8840    3.2751 C.3     1  LIG1        0.0000
      8 C8          3.0529    3.2364    4.1544 C.2     1  LIG1        0.0000
      9 C9          3.2040    1.9148    3.8764 C.2     1  LIG1        0.0000
     10 S10         4.4392    1.2231    4.8145 S.3     1  LIG1        0.0000
     11 C11         4.7638    2.6641    5.6591 C.2     1  LIG1        0.0000
     12 N12         5.7252    2.7203    6.6212 N.pl3   1  LIG1        0.0000
     13 C13         5.8688    3.9361    7.2202 C.2     1  LIG1        0.0000
     14 S14         7.0064    4.0387    8.3514 S.2     1  LIG1        0.0000
     15 N15         5.0637    4.9828    6.8417 N.2     1  LIG1        0.0000
     16 C16         4.1474    4.8645    5.8934 C.2     1  LIG1        0.0000
     17 N17         3.3699    5.9848    5.5778 N.pl3   1  LIG1        0.0000
     18 C18         3.9373    3.6395    5.1994 C.2     1  LIG1        0.0000
     19 C19         2.5014    0.9717    2.9174 C.3     1  LIG1        0.0000
     20 H           2.5798    2.3332    1.3323 H       1  LIG1        0.0000
     21 H           6.2841    1.9292    6.8698 H       1  LIG1        0.0000
     22 H           0.1651    1.1255   -0.9002 H       1  LIG1        0.0000
     23 H           0.2800    2.5732   -0.1535 H       1  LIG1        0.0000
     24 H           1.6128    1.8723   -0.7853 H       1  LIG1        0.0000
     25 H          -0.9002    0.1651    1.1255 H       1  LIG1        0.0000
     26 H          -0.1535    0.2800    2.5732 H       1  LIG1        0.0000
     27 H          -0.7853    1.6128    1.8723 H       1  LIG1        0.0000
     28 H           1.1255   -0.9002    0.1651 H       1  LIG1        0.0000
     29 H           2.5732   -0.1535    0.2800 H       1  LIG1        0.0000
     30 H           1.8723   -0.7853    1.6128 H       1  LIG1        0.0000
     31 H           0.4875    2.4284    3.3310 H       1  LIG1        0.0000
     32 H           0.4189    3.3636    1.9940 H       1  LIG1        0.0000
     33 H           2.4419    4.3978    2.5497 H       1  LIG1        0.0000
     34 H           1.4486    4.5112    3.8409 H       1  LIG1        0.0000
     35 H           2.6706    5.9235    4.8657 H       1  LIG1        0.0000
     36 H           3.5138    6.8464    6.0645 H       1  LIG1        0.0000
     37 H           1.7983    0.4439    3.3939 H       1  LIG1        0.0000
     38 H           3.1572    0.3470    2.4936 H       1  LIG1        0.0000
@<TRIPOS>BOND
     1     1     2    1
     2     2     3    1
     3     2     4    1
     4     2     5    1
     5     5     6    1
     6     6     7    1
     7     7     8    1
     8     8     9    2
     9     9    10    1
    10    10    11    1
    11    11    12    1
    12    12    13    1
    13    13    14    2
    14    13    15    1
    15    15    16    2
    16    16    17    1
    17    16    18    1
    18    18     8    1
    19    18    11    2
    20     9    19    1
    21    19     5    1
    22     5    20    1
    23    12    21    1
    24     1    22    1
    25     1    23    1
    26     1    24    1
    27     3    25    1
    28     3    26    1
    29     3    27    1
    30     4    28    1
    31     4    29    1
    32     4    30    1
    33     6    31    1
    34     6    32    1
    35     7    33    1
    36     7    34    1
    37    17    35    1
    38    17    36    1
    39    19    37    1
    40    19    38    1
