@<TRIPOS>MOLECULE
*****
 38 40 0 0 0
SMALL
USER_CHARGES

@<TRIPOS>ATOM
      1 C1          0.7425    1.7029   -0.3229 C.3     1  LIG1        0.0000
      2 C2          1.0000    1.0000    1.0000 C.3     1  LIG1        0.0000
      3 C3         -0.3229    0.7425    1.7029 C.3     1  LIG1        0.0000
      4 C4          1.7029   -0.3229    0.7425 C.3     1  LIG1        0.0000
      5 C5          1.8760    1.8760    1.8760 C.3     1  LIG1        0.0000
      6 C6          1.1506    3.1625    2.2342 C.3     1  LIG1        0.0000
      7 C7          2.1682    4.0886    2.8861 C.3     1  LIG1        0.0000
      8 C8          2.8974    3.4687    4.0776 C.2     1  LIG1        0.0000
      9 C9          2.8042    2.1129    4.0781 C.2     1  LIG1        0.0000
     10 S10         3.6729    1.4341    5.3698 S.3     1  LIG1        0.0000
     11 C11         4.1482    2.9433    5.9955 C.2     1  LIG1        0.0000
     12 N12         4.9125    3.0361    7.1182 N.pl3   1  LIG1        0.0000
     13 C13         5.2086    4.3079    7.5087 C.2     1  LIG1        0.0000
     14 S14         6.1221    4.4506    8.8237 S.2     1  LIG1        0.0000
     15 N15         4.7307    5.3729    6.7846 N.2     1  LIG1        0.0000
     16 C16         3.9937    5.2155    5.6960 C.2     1  LIG1        0.0000
     17 N17         3.5472    6.3600    5.0253 N.pl3   1  LIG1        0.0000
     18 C18         3.6487    3.9261    5.2015 C.2     1  LIG1        0.0000
     19 C19         2.0948    1.1238    3.1720 C.3     1  LIG1        0.0000
     20 H           2.7474    2.0717    1.4261 H       1  LIG1        0.0000
     21 H           5.2327    2.2317    7.6186 H       1  LIG1        0.0000
     22 H           0.1651    1.1255   -0.9002 H       1  LIG1        0.0000
     23 H           0.2800    2.5732   -0.1535 H       1  LIG1        0.0000
     24 H           1.6128    1.8723   -0.7853 H       1  LIG1        0.0000
     25 H          -0.9002    0.1651    1.1255 H       1  LIG1        0.0000
     26 H          -0.1535    0.2800    2.5732 H       1  LIG1        0.0000
     27 H          -0.7853    1.6128    1.8723 H       1  LIG1        0.0000
     28 H           1.1255   -0.9002    0.1651 H       1  LIG1        0.0000
     29 H           2.5732   -0.1535    0.2800 H       1  LIG1        0.0000
     30 H           1.8723   -0.7853    1.6128 H       1  LIG1        0.0000
     31 H           0.4055    2.9690    2.8724 H       1  LIG1        0.0000
     32 H           0.7802    3.5879    1.4084 H       1  LIG1        0.0000
     33 H           2.8483    4.3426    2.1985 H       1  LIG1        0.0000
     34 H           1.6906    4.9086    3.2015 H       1  LIG1        0.0000
     35 H           2.9889    6.2703    4.2005 H       1  LIG1        0.0000
     36 H           3.7864    7.2674    5.3709 H       1  LIG1        0.0000
     37 H           1.2206    0.8455    3.5699 H       1  LIG1        0.0000
     38 H           2.6635    0.3156    3.0187 H       1  LIG1        0.0000
@<TRIPOS>BOND
     1     1     2    1
     2     2     3    1
     3     2     4    1
     4     2     5    1
     5     5     6    1
     6     6     7    1
     7     7     8    1
     8     8     9    2
     9     9    10    1
    10    10    11    1
    11    11    12    1
    12    12    13    1
    13    13    14    2
    14    13    15    1
    15    15    16    2
    16    16    17    1
    17    16    18    1
    18    18     8    1
    19    18    11    2
    20     9    19    1
    21    19     5    1
    22     5    20    1
    23    12    21    1
    24     1    22    1
    25     1    23    1
    26     1    24    1
    27     3    25    1
    28     3    26    1
    29     3    27    1
    30     4    28    1
    31     4    29    1
    32     4    30    1
    33     6    31    1
    34     6    32    1
    35     7    33    1
    36     7    34    1
    37    17    35    1
    38    17    36    1
    39    19    37    1
    40    19    38    1
