@<TRIPOS>MOLECULE

  50   53
SMALL
USER_CHARGES
@<TRIPOS>ATOM
   1 C1           0.9651    -5.8375    -2.0255 C.3          1    LIG   0.0000
   2 C2           1.0603    -5.1003    -0.6997 C.3          1    LIG   0.0000
   3 O3           0.6972    -3.7404    -0.8870 O.3          1    LIG   0.0000
   4 C4           0.7385    -2.9924     0.1876 C.2          1    LIG   0.0000
   5 O5           1.0674    -3.4695     1.2384 O.2          1    LIG   0.0000
   6 C6           0.3858    -1.5844     0.1073 C.2          1    LIG   0.0000
   7 C7          -0.9217    -1.3022     0.1012 C.2          1    LIG   0.0000
   8 C8          -1.8845    -2.4829     0.1576 C.3          1    LIG   0.0000
   9 N9          -1.5361    -0.0297     0.0433 N.pl3        1    LIG   0.0000
  10 C10         -0.9888     1.2681    -0.0816 C.ar         1    LIG   0.0000
  11 C11         -1.8802     2.3388    -0.1670 C.ar         1    LIG   0.0000
  12 C12         -1.4438     3.6608    -0.2476 C.ar         1    LIG   0.0000
  13 C13         -0.0769     3.9224    -0.2579 C.ar         1    LIG   0.0000
  14 C14          0.8490     2.8864    -0.1972 C.ar         1    LIG   0.0000
  15 C15          0.3869     1.5785    -0.1205 C.ar         1    LIG   0.0000
  16 N16          1.5160     0.7293    -0.0560 N.pl3        1    LIG   0.0000
  17 C17          1.5265    -0.6726     0.0438 C.2          1    LIG   0.0000
  18 N18          2.6876    -1.1845     0.0937 N.2          1    LIG   0.0000
  19 C19          3.8479    -0.4570     0.0554 C.2          1    LIG   0.0000
  20 O20          4.3441    -0.0647     1.0751 O.2          1    LIG   0.0000
  21 C21          4.4764    -0.1612    -1.2173 C.2          1    LIG   0.0000
  22 C22          4.7195     1.0684    -1.7374 C.2          1    LIG   0.0000
  23 C23          5.3569     1.0674    -3.0145 C.ar         1    LIG   0.0000
  24 C24          5.7802     2.0706    -3.8849 C.ar         1    LIG   0.0000
  25 C25          6.3911     1.7964    -5.1074 C.ar         1    LIG   0.0000
  26 N26          6.8149     2.8077    -5.9743 N.2          1    LIG   1.0000
  27 O27          7.3425     2.5221    -7.0250 O.co2        1    LIG   0.0000
  28 O28          6.6527     3.9783    -5.6715 O.co2        1    LIG  -1.0000
  29 C29          6.6134     0.4923    -5.5280 C.ar         1    LIG   0.0000
  30 C30          6.2152    -0.5515    -4.7075 C.ar         1    LIG   0.0000
  31 C31          5.6162    -0.1927    -3.5105 C.ar         1    LIG   0.0000
  32 S32          5.0458    -1.2956    -2.3490 S.3          1    LIG   0.0000
  33 H            1.2208    -6.7952    -1.8936 H            1    LIG   0.0000
  34 H            0.0270    -5.7871    -2.3683 H            1    LIG   0.0000
  35 H            1.5848    -5.4151    -2.6870 H            1    LIG   0.0000
  36 H            0.4406    -5.5227    -0.0382 H            1    LIG   0.0000
  37 H            1.9984    -5.1507    -0.3569 H            1    LIG   0.0000
  38 H           -1.3641    -3.3359     0.1962 H            1    LIG   0.0000
  39 H           -2.4591    -2.4058     0.9724 H            1    LIG   0.0000
  40 H           -2.4620    -2.4814    -0.6589 H            1    LIG   0.0000
  41 H           -2.5342    -0.0516     0.1010 H            1    LIG   0.0000
  42 H           -2.8626     2.1521    -0.1704 H            1    LIG   0.0000
  43 H           -2.1038     4.4104    -0.2975 H            1    LIG   0.0000
  44 H            0.2438     4.8681    -0.3096 H            1    LIG   0.0000
  45 H            1.8301     3.0795    -0.2087 H            1    LIG   0.0000
  46 H            2.4093     1.1777    -0.0848 H            1    LIG   0.0000
  47 H            4.4708     1.9120    -1.2615 H            1    LIG   0.0000
  48 H            5.6400     3.0251    -3.6218 H            1    LIG   0.0000
  49 H            7.0530     0.3092    -6.4073 H            1    LIG   0.0000
  50 H            6.3523    -1.5081    -4.9645 H            1    LIG   0.0000
@<TRIPOS>BOND
   1        1        2 1
   2        2        3 1
   3        3        4 1
   4        4        5 2
   5        4        6 1
   6        6        7 2
   7        7        8 1
   8        7        9 1
   9        9       10 1
  10       10       11 ar
  11       11       12 ar
  12       12       13 ar
  13       13       14 ar
  14       14       15 ar
  15       15       10 ar
  16       15       16 1
  17       16       17 1
  18       17        6 1
  19       17       18 2
  20       18       19 1
  21       19       20 2
  22       19       21 1
  23       21       22 2
  24       22       23 1
  25       23       24 ar
  26       24       25 ar
  27       25       26 1
  28       26       27 ar
  29       26       28 ar
  30       25       29 ar
  31       29       30 ar
  32       30       31 ar
  33       31       23 ar
  34       31       32 1
  35       32       21 1
  36        1       33 1
  37        1       34 1
  38        1       35 1
  39        2       36 1
  40        2       37 1
  41        8       38 1
  42        8       39 1
  43        8       40 1
  44        9       41 1
  45       11       42 1
  46       12       43 1
  47       13       44 1
  48       14       45 1
  49       16       46 1
  50       22       47 1
  51       24       48 1
  52       29       49 1
  53       30       50 1

@<TRIPOS>MOLECULE

  50   53
SMALL
USER_CHARGES
@<TRIPOS>ATOM
   1 C1           0.9651    -5.8375    -2.0255 C.3          1    LIG   0.0000
   2 C2           1.0603    -5.1003    -0.6997 C.3          1    LIG   0.0000
   3 O3           0.6972    -3.7404    -0.8870 O.3          1    LIG   0.0000
   4 C4           0.7385    -2.9924     0.1876 C.2          1    LIG   0.0000
   5 O5           1.0674    -3.4695     1.2384 O.2          1    LIG   0.0000
   6 C6           0.3858    -1.5844     0.1073 C.2          1    LIG   0.0000
   7 C7          -0.9217    -1.3022     0.1012 C.2          1    LIG   0.0000
   8 C8          -1.8845    -2.4829     0.1576 C.3          1    LIG   0.0000
   9 N9          -1.5361    -0.0297     0.0433 N.pl3        1    LIG   0.0000
  10 C10         -0.9888     1.2681    -0.0816 C.ar         1    LIG   0.0000
  11 C11         -1.8802     2.3388    -0.1670 C.ar         1    LIG   0.0000
  12 C12         -1.4438     3.6608    -0.2476 C.ar         1    LIG   0.0000
  13 C13         -0.0769     3.9224    -0.2579 C.ar         1    LIG   0.0000
  14 C14          0.8490     2.8864    -0.1972 C.ar         1    LIG   0.0000
  15 C15          0.3869     1.5785    -0.1205 C.ar         1    LIG   0.0000
  16 N16          1.5160     0.7293    -0.0560 N.pl3        1    LIG   0.0000
  17 C17          1.5265    -0.6726     0.0438 C.2          1    LIG   0.0000
  18 N18          2.6876    -1.1845     0.0937 N.2          1    LIG   0.0000
  19 C19          3.8479    -0.4570     0.0554 C.2          1    LIG   0.0000
  20 O20          4.3441    -0.0647     1.0751 O.2          1    LIG   0.0000
  21 C21          4.4764    -0.1612    -1.2173 C.2          1    LIG   0.0000
  22 C22          5.7261    -0.5168    -1.6088 C.2          1    LIG   0.0000
  23 C23          6.0893    -0.0938    -2.9227 C.ar         1    LIG   0.0000
  24 C24          7.2357    -0.2378    -3.7028 C.ar         1    LIG   0.0000
  25 C25          7.3393     0.2861    -4.9903 C.ar         1    LIG   0.0000
  26 N26          8.4912     0.1361    -5.7675 N.2          1    LIG   1.0000
  27 O27          8.5351     0.6067    -6.8813 O.co2        1    LIG   0.0000
  28 O28          9.4525    -0.4694    -5.3228 O.co2        1    LIG  -1.0000
  29 C29          6.2921     0.9882    -5.5714 C.ar         1    LIG   0.0000
  30 C30          5.1237     1.1663    -4.8472 C.ar         1    LIG   0.0000
  31 C31          5.1031     0.6143    -3.5763 C.ar         1    LIG   0.0000
  32 S32          3.7852     0.7067    -2.5061 S.3          1    LIG   0.0000
  33 H            1.2208    -6.7952    -1.8936 H            1    LIG   0.0000
  34 H            0.0270    -5.7871    -2.3683 H            1    LIG   0.0000
  35 H            1.5848    -5.4151    -2.6870 H            1    LIG   0.0000
  36 H            0.4406    -5.5227    -0.0382 H            1    LIG   0.0000
  37 H            1.9984    -5.1507    -0.3569 H            1    LIG   0.0000
  38 H           -1.3641    -3.3359     0.1962 H            1    LIG   0.0000
  39 H           -2.4591    -2.4058     0.9724 H            1    LIG   0.0000
  40 H           -2.4620    -2.4814    -0.6589 H            1    LIG   0.0000
  41 H           -2.5342    -0.0516     0.1010 H            1    LIG   0.0000
  42 H           -2.8626     2.1521    -0.1704 H            1    LIG   0.0000
  43 H           -2.1038     4.4104    -0.2975 H            1    LIG   0.0000
  44 H            0.2438     4.8681    -0.3096 H            1    LIG   0.0000
  45 H            1.8301     3.0795    -0.2087 H            1    LIG   0.0000
  46 H            2.4093     1.1777    -0.0848 H            1    LIG   0.0000
  47 H            6.3461    -1.0363    -1.0208 H            1    LIG   0.0000
  48 H            8.0148    -0.7369    -3.3236 H            1    LIG   0.0000
  49 H            6.3792     1.3588    -6.4961 H            1    LIG   0.0000
  50 H            4.3410     1.6643    -5.2203 H            1    LIG   0.0000
@<TRIPOS>BOND
   1        1        2 1
   2        2        3 1
   3        3        4 1
   4        4        5 2
   5        4        6 1
   6        6        7 2
   7        7        8 1
   8        7        9 1
   9        9       10 1
  10       10       11 ar
  11       11       12 ar
  12       12       13 ar
  13       13       14 ar
  14       14       15 ar
  15       15       10 ar
  16       15       16 1
  17       16       17 1
  18       17        6 1
  19       17       18 2
  20       18       19 1
  21       19       20 2
  22       19       21 1
  23       21       22 2
  24       22       23 1
  25       23       24 ar
  26       24       25 ar
  27       25       26 1
  28       26       27 ar
  29       26       28 ar
  30       25       29 ar
  31       29       30 ar
  32       30       31 ar
  33       31       23 ar
  34       31       32 1
  35       32       21 1
  36        1       33 1
  37        1       34 1
  38        1       35 1
  39        2       36 1
  40        2       37 1
  41        8       38 1
  42        8       39 1
  43        8       40 1
  44        9       41 1
  45       11       42 1
  46       12       43 1
  47       13       44 1
  48       14       45 1
  49       16       46 1
  50       22       47 1
  51       24       48 1
  52       29       49 1
  53       30       50 1

@<TRIPOS>MOLECULE

  50   53
SMALL
USER_CHARGES
@<TRIPOS>ATOM
   1 C1           0.9651    -5.8375    -2.0255 C.3          1    LIG   0.0000
   2 C2           1.0603    -5.1003    -0.6997 C.3          1    LIG   0.0000
   3 O3           0.6972    -3.7404    -0.8870 O.3          1    LIG   0.0000
   4 C4           0.7385    -2.9924     0.1876 C.2          1    LIG   0.0000
   5 O5           1.0674    -3.4695     1.2384 O.2          1    LIG   0.0000
   6 C6           0.3858    -1.5844     0.1073 C.2          1    LIG   0.0000
   7 C7          -0.9217    -1.3022     0.1012 C.2          1    LIG   0.0000
   8 C8          -1.8845    -2.4829     0.1576 C.3          1    LIG   0.0000
   9 N9          -1.5361    -0.0297     0.0433 N.pl3        1    LIG   0.0000
  10 C10         -0.9888     1.2681    -0.0816 C.ar         1    LIG   0.0000
  11 C11         -1.8802     2.3388    -0.1670 C.ar         1    LIG   0.0000
  12 C12         -1.4438     3.6608    -0.2476 C.ar         1    LIG   0.0000
  13 C13         -0.0769     3.9224    -0.2579 C.ar         1    LIG   0.0000
  14 C14          0.8490     2.8864    -0.1972 C.ar         1    LIG   0.0000
  15 C15          0.3869     1.5785    -0.1205 C.ar         1    LIG   0.0000
  16 N16          1.5160     0.7293    -0.0560 N.pl3        1    LIG   0.0000
  17 C17          1.5265    -0.6726     0.0438 C.2          1    LIG   0.0000
  18 N18          2.6876    -1.1845     0.0937 N.2          1    LIG   0.0000
  19 C19          3.8479    -0.4570     0.0554 C.2          1    LIG   0.0000
  20 O20          4.3441    -0.0647     1.0751 O.2          1    LIG   0.0000
  21 C21          4.4764    -0.1612    -1.2173 C.2          1    LIG   0.0000
  22 C22          4.4367    -0.9226    -2.3399 C.2          1    LIG   0.0000
  23 C23          5.1455    -0.3868    -3.4570 C.ar         1    LIG   0.0000
  24 C24          5.3593    -0.8198    -4.7647 C.ar         1    LIG   0.0000
  25 C25          6.1122    -0.0911    -5.6839 C.ar         1    LIG   0.0000
  26 N26          6.3208    -0.5306    -6.9943 N.2          1    LIG   1.0000
  27 O27          6.9803     0.1367    -7.7584 O.co2        1    LIG   0.0000
  28 O28          5.8379    -1.5869    -7.3675 O.co2        1    LIG  -1.0000
  29 C29          6.6963     1.1206    -5.3410 C.ar         1    LIG   0.0000
  30 C30          6.5211     1.6066    -4.0548 C.ar         1    LIG   0.0000
  31 C31          5.7596     0.8214    -3.2039 C.ar         1    LIG   0.0000
  32 S32          5.4125     1.2099    -1.5855 S.3          1    LIG   0.0000
  33 H            1.2208    -6.7952    -1.8936 H            1    LIG   0.0000
  34 H            0.0270    -5.7871    -2.3683 H            1    LIG   0.0000
  35 H            1.5848    -5.4151    -2.6870 H            1    LIG   0.0000
  36 H            0.4406    -5.5227    -0.0382 H            1    LIG   0.0000
  37 H            1.9984    -5.1507    -0.3569 H            1    LIG   0.0000
  38 H           -1.3641    -3.3359     0.1962 H            1    LIG   0.0000
  39 H           -2.4591    -2.4058     0.9724 H            1    LIG   0.0000
  40 H           -2.4620    -2.4814    -0.6589 H            1    LIG   0.0000
  41 H           -2.5342    -0.0516     0.1010 H            1    LIG   0.0000
  42 H           -2.8626     2.1521    -0.1704 H            1    LIG   0.0000
  43 H           -2.1038     4.4104    -0.2975 H            1    LIG   0.0000
  44 H            0.2438     4.8681    -0.3096 H            1    LIG   0.0000
  45 H            1.8301     3.0795    -0.2087 H            1    LIG   0.0000
  46 H            2.4093     1.1777    -0.0848 H            1    LIG   0.0000
  47 H            3.9475    -1.7938    -2.3814 H            1    LIG   0.0000
  48 H            4.9566    -1.6879    -5.0548 H            1    LIG   0.0000
  49 H            7.2339     1.6338    -6.0101 H            1    LIG   0.0000
  50 H            6.9211     2.4738    -3.7580 H            1    LIG   0.0000
@<TRIPOS>BOND
   1        1        2 1
   2        2        3 1
   3        3        4 1
   4        4        5 2
   5        4        6 1
   6        6        7 2
   7        7        8 1
   8        7        9 1
   9        9       10 1
  10       10       11 ar
  11       11       12 ar
  12       12       13 ar
  13       13       14 ar
  14       14       15 ar
  15       15       10 ar
  16       15       16 1
  17       16       17 1
  18       17        6 1
  19       17       18 2
  20       18       19 1
  21       19       20 2
  22       19       21 1
  23       21       22 2
  24       22       23 1
  25       23       24 ar
  26       24       25 ar
  27       25       26 1
  28       26       27 ar
  29       26       28 ar
  30       25       29 ar
  31       29       30 ar
  32       30       31 ar
  33       31       23 ar
  34       31       32 1
  35       32       21 1
  36        1       33 1
  37        1       34 1
  38        1       35 1
  39        2       36 1
  40        2       37 1
  41        8       38 1
  42        8       39 1
  43        8       40 1
  44        9       41 1
  45       11       42 1
  46       12       43 1
  47       13       44 1
  48       14       45 1
  49       16       46 1
  50       22       47 1
  51       24       48 1
  52       29       49 1
  53       30       50 1

@<TRIPOS>MOLECULE

  50   53
SMALL
USER_CHARGES
@<TRIPOS>ATOM
   1 C1           0.9651    -5.8375    -2.0255 C.3          1    LIG   0.0000
   2 C2           1.0603    -5.1003    -0.6997 C.3          1    LIG   0.0000
   3 O3           0.6972    -3.7404    -0.8870 O.3          1    LIG   0.0000
   4 C4           0.7385    -2.9924     0.1876 C.2          1    LIG   0.0000
   5 O5           1.0674    -3.4695     1.2384 O.2          1    LIG   0.0000
   6 C6           0.3858    -1.5844     0.1073 C.2          1    LIG   0.0000
   7 C7          -0.9217    -1.3022     0.1012 C.2          1    LIG   0.0000
   8 C8          -1.8845    -2.4829     0.1576 C.3          1    LIG   0.0000
   9 N9          -1.5361    -0.0297     0.0433 N.pl3        1    LIG   0.0000
  10 C10         -0.9888     1.2681    -0.0816 C.ar         1    LIG   0.0000
  11 C11         -1.8802     2.3388    -0.1670 C.ar         1    LIG   0.0000
  12 C12         -1.4438     3.6608    -0.2476 C.ar         1    LIG   0.0000
  13 C13         -0.0769     3.9224    -0.2579 C.ar         1    LIG   0.0000
  14 C14          0.8490     2.8864    -0.1972 C.ar         1    LIG   0.0000
  15 C15          0.3869     1.5785    -0.1205 C.ar         1    LIG   0.0000
  16 N16          1.5160     0.7293    -0.0560 N.pl3        1    LIG   0.0000
  17 C17          1.5265    -0.6726     0.0438 C.2          1    LIG   0.0000
  18 N18          2.6876    -1.1845     0.0937 N.2          1    LIG   0.0000
  19 C19          3.8479    -0.4570     0.0554 C.2          1    LIG   0.0000
  20 O20          4.3681    -0.2122    -0.9980 O.2          1    LIG   0.0000
  21 C21          4.4474     0.0170     1.2874 C.2          1    LIG   0.0000
  22 C22          5.6836    -0.2851     1.7587 C.2          1    LIG   0.0000
  23 C23          6.0201     0.3265     3.0037 C.ar         1    LIG   0.0000
  24 C24          7.1476     0.2956     3.8229 C.ar         1    LIG   0.0000
  25 C25          7.2244     1.0010     5.0226 C.ar         1    LIG   0.0000
  26 N26          8.3591     0.9668     5.8381 N.2          1    LIG   1.0000
  27 O27          8.3812     1.5971     6.8707 O.co2        1    LIG   0.0000
  28 O28          9.3272     0.3014     5.5087 O.co2        1    LIG  -1.0000
  29 C29          6.1680     1.7821     5.4708 C.ar         1    LIG   0.0000
  30 C30          5.0173     1.8548     4.7014 C.ar         1    LIG   0.0000
  31 C31          5.0229     1.1240     3.5240 C.ar         1    LIG   0.0000
  32 S32          3.7281     1.0575     2.4242 S.3          1    LIG   0.0000
  33 H            1.2208    -6.7952    -1.8936 H            1    LIG   0.0000
  34 H            0.0270    -5.7871    -2.3683 H            1    LIG   0.0000
  35 H            1.5848    -5.4151    -2.6870 H            1    LIG   0.0000
  36 H            0.4406    -5.5227    -0.0382 H            1    LIG   0.0000
  37 H            1.9984    -5.1507    -0.3569 H            1    LIG   0.0000
  38 H           -1.3641    -3.3359     0.1962 H            1    LIG   0.0000
  39 H           -2.4591    -2.4058     0.9724 H            1    LIG   0.0000
  40 H           -2.4620    -2.4814    -0.6589 H            1    LIG   0.0000
  41 H           -2.5342    -0.0516     0.1010 H            1    LIG   0.0000
  42 H           -2.8626     2.1521    -0.1704 H            1    LIG   0.0000
  43 H           -2.1038     4.4104    -0.2975 H            1    LIG   0.0000
  44 H            0.2438     4.8681    -0.3096 H            1    LIG   0.0000
  45 H            1.8301     3.0795    -0.2087 H            1    LIG   0.0000
  46 H            2.4093     1.1777    -0.0848 H            1    LIG   0.0000
  47 H            6.3117    -0.8909     1.2703 H            1    LIG   0.0000
  48 H            7.9327    -0.2546     3.5385 H            1    LIG   0.0000
  49 H            6.2359     2.2834     6.3334 H            1    LIG   0.0000
  50 H            4.2286     2.4029     4.9799 H            1    LIG   0.0000
@<TRIPOS>BOND
   1        1        2 1
   2        2        3 1
   3        3        4 1
   4        4        5 2
   5        4        6 1
   6        6        7 2
   7        7        8 1
   8        7        9 1
   9        9       10 1
  10       10       11 ar
  11       11       12 ar
  12       12       13 ar
  13       13       14 ar
  14       14       15 ar
  15       15       10 ar
  16       15       16 1
  17       16       17 1
  18       17        6 1
  19       17       18 2
  20       18       19 1
  21       19       20 2
  22       19       21 1
  23       21       22 2
  24       22       23 1
  25       23       24 ar
  26       24       25 ar
  27       25       26 1
  28       26       27 ar
  29       26       28 ar
  30       25       29 ar
  31       29       30 ar
  32       30       31 ar
  33       31       23 ar
  34       31       32 1
  35       32       21 1
  36        1       33 1
  37        1       34 1
  38        1       35 1
  39        2       36 1
  40        2       37 1
  41        8       38 1
  42        8       39 1
  43        8       40 1
  44        9       41 1
  45       11       42 1
  46       12       43 1
  47       13       44 1
  48       14       45 1
  49       16       46 1
  50       22       47 1
  51       24       48 1
  52       29       49 1
  53       30       50 1

@<TRIPOS>MOLECULE

  50   53
SMALL
USER_CHARGES
@<TRIPOS>ATOM
   1 C1           0.9651    -5.8375    -2.0255 C.3          1    LIG   0.0000
   2 C2           1.0603    -5.1003    -0.6997 C.3          1    LIG   0.0000
   3 O3           0.6972    -3.7404    -0.8870 O.3          1    LIG   0.0000
   4 C4           0.7385    -2.9924     0.1876 C.2          1    LIG   0.0000
   5 O5           1.0674    -3.4695     1.2384 O.2          1    LIG   0.0000
   6 C6           0.3858    -1.5844     0.1073 C.2          1    LIG   0.0000
   7 C7          -0.9217    -1.3022     0.1012 C.2          1    LIG   0.0000
   8 C8          -1.8845    -2.4829     0.1576 C.3          1    LIG   0.0000
   9 N9          -1.5361    -0.0297     0.0433 N.pl3        1    LIG   0.0000
  10 C10         -0.9888     1.2681    -0.0816 C.ar         1    LIG   0.0000
  11 C11         -1.8802     2.3388    -0.1670 C.ar         1    LIG   0.0000
  12 C12         -1.4438     3.6608    -0.2476 C.ar         1    LIG   0.0000
  13 C13         -0.0769     3.9224    -0.2579 C.ar         1    LIG   0.0000
  14 C14          0.8490     2.8864    -0.1972 C.ar         1    LIG   0.0000
  15 C15          0.3869     1.5785    -0.1205 C.ar         1    LIG   0.0000
  16 N16          1.5160     0.7293    -0.0560 N.pl3        1    LIG   0.0000
  17 C17          1.5265    -0.6726     0.0438 C.2          1    LIG   0.0000
  18 N18          2.6876    -1.1845     0.0937 N.2          1    LIG   0.0000
  19 C19          3.8479    -0.4570     0.0554 C.2          1    LIG   0.0000
  20 O20          4.3681    -0.2122    -0.9980 O.2          1    LIG   0.0000
  21 C21          4.4474     0.0170     1.2874 C.2          1    LIG   0.0000
  22 C22          4.6891     1.3077     1.6297 C.2          1    LIG   0.0000
  23 C23          5.2896     1.4890     2.9119 C.ar         1    LIG   0.0000
  24 C24          5.6952     2.6059     3.6407 C.ar         1    LIG   0.0000
  25 C25          6.2724     2.5089     4.9057 C.ar         1    LIG   0.0000
  26 N26          6.6749     3.6335     5.6315 N.2          1    LIG   1.0000
  27 O27          7.1700     3.5008     6.7276 O.co2        1    LIG   0.0000
  28 O28          6.5270     4.7489     5.1600 O.co2        1    LIG  -1.0000
  29 C29          6.4764     1.2782     5.5146 C.ar         1    LIG   0.0000
  30 C30          6.0946     0.1281     4.8416 C.ar         1    LIG   0.0000
  31 C31          5.5289     0.3125     3.5900 C.ar         1    LIG   0.0000
  32 S32          4.9887    -0.9449     2.5812 S.3          1    LIG   0.0000
  33 H            1.2208    -6.7952    -1.8936 H            1    LIG   0.0000
  34 H            0.0270    -5.7871    -2.3683 H            1    LIG   0.0000
  35 H            1.5848    -5.4151    -2.6870 H            1    LIG   0.0000
  36 H            0.4406    -5.5227    -0.0382 H            1    LIG   0.0000
  37 H            1.9984    -5.1507    -0.3569 H            1    LIG   0.0000
  38 H           -1.3641    -3.3359     0.1962 H            1    LIG   0.0000
  39 H           -2.4591    -2.4058     0.9724 H            1    LIG   0.0000
  40 H           -2.4620    -2.4814    -0.6589 H            1    LIG   0.0000
  41 H           -2.5342    -0.0516     0.1010 H            1    LIG   0.0000
  42 H           -2.8626     2.1521    -0.1704 H            1    LIG   0.0000
  43 H           -2.1038     4.4104    -0.2975 H            1    LIG   0.0000
  44 H            0.2438     4.8681    -0.3096 H            1    LIG   0.0000
  45 H            1.8301     3.0795    -0.2087 H            1    LIG   0.0000
  46 H            2.4093     1.1777    -0.0848 H            1    LIG   0.0000
  47 H            4.4634     2.0744     1.0287 H            1    LIG   0.0000
  48 H            5.5669     3.5131     3.2399 H            1    LIG   0.0000
  49 H            6.8913     1.2223     6.4228 H            1    LIG   0.0000
  50 H            6.2200    -0.7820     5.2364 H            1    LIG   0.0000
@<TRIPOS>BOND
   1        1        2 1
   2        2        3 1
   3        3        4 1
   4        4        5 2
   5        4        6 1
   6        6        7 2
   7        7        8 1
   8        7        9 1
   9        9       10 1
  10       10       11 ar
  11       11       12 ar
  12       12       13 ar
  13       13       14 ar
  14       14       15 ar
  15       15       10 ar
  16       15       16 1
  17       16       17 1
  18       17        6 1
  19       17       18 2
  20       18       19 1
  21       19       20 2
  22       19       21 1
  23       21       22 2
  24       22       23 1
  25       23       24 ar
  26       24       25 ar
  27       25       26 1
  28       26       27 ar
  29       26       28 ar
  30       25       29 ar
  31       29       30 ar
  32       30       31 ar
  33       31       23 ar
  34       31       32 1
  35       32       21 1
  36        1       33 1
  37        1       34 1
  38        1       35 1
  39        2       36 1
  40        2       37 1
  41        8       38 1
  42        8       39 1
  43        8       40 1
  44        9       41 1
  45       11       42 1
  46       12       43 1
  47       13       44 1
  48       14       45 1
  49       16       46 1
  50       22       47 1
  51       24       48 1
  52       29       49 1
  53       30       50 1

@<TRIPOS>MOLECULE

  50   53
SMALL
USER_CHARGES
@<TRIPOS>ATOM
   1 C1           0.9651    -5.8375    -2.0255 C.3          1    LIG   0.0000
   2 C2           1.0603    -5.1003    -0.6997 C.3          1    LIG   0.0000
   3 O3           0.6972    -3.7404    -0.8870 O.3          1    LIG   0.0000
   4 C4           0.7385    -2.9924     0.1876 C.2          1    LIG   0.0000
   5 O5           1.0674    -3.4695     1.2384 O.2          1    LIG   0.0000
   6 C6           0.3858    -1.5844     0.1073 C.2          1    LIG   0.0000
   7 C7          -0.9217    -1.3022     0.1012 C.2          1    LIG   0.0000
   8 C8          -1.8845    -2.4829     0.1576 C.3          1    LIG   0.0000
   9 N9          -1.5361    -0.0297     0.0433 N.pl3        1    LIG   0.0000
  10 C10         -0.9888     1.2681    -0.0816 C.ar         1    LIG   0.0000
  11 C11         -1.8802     2.3388    -0.1670 C.ar         1    LIG   0.0000
  12 C12         -1.4438     3.6608    -0.2476 C.ar         1    LIG   0.0000
  13 C13         -0.0769     3.9224    -0.2579 C.ar         1    LIG   0.0000
  14 C14          0.8490     2.8864    -0.1972 C.ar         1    LIG   0.0000
  15 C15          0.3869     1.5785    -0.1205 C.ar         1    LIG   0.0000
  16 N16          1.5160     0.7293    -0.0560 N.pl3        1    LIG   0.0000
  17 C17          1.5265    -0.6726     0.0438 C.2          1    LIG   0.0000
  18 N18          2.6876    -1.1845     0.0937 N.2          1    LIG   0.0000
  19 C19          3.8479    -0.4570     0.0554 C.2          1    LIG   0.0000
  20 O20          4.3681    -0.2122    -0.9980 O.2          1    LIG   0.0000
  21 C21          4.4474     0.0170     1.2874 C.2          1    LIG   0.0000
  22 C22          3.7985     0.3466     2.4328 C.2          1    LIG   0.0000
  23 C23          4.6413     0.7837     3.4987 C.ar         1    LIG   0.0000
  24 C24          4.4067     1.2037     4.8070 C.ar         1    LIG   0.0000
  25 C25          5.4328     1.5903     5.6676 C.ar         1    LIG   0.0000
  26 N26          5.1903     2.0085     6.9790 N.2          1    LIG   1.0000
  27 O27          6.1132     2.3334     7.6909 O.co2        1    LIG   0.0000
  28 O28          4.0480     2.0460     7.4059 O.co2        1    LIG  -1.0000
  29 C29          6.7602     1.5771     5.2615 C.ar         1    LIG   0.0000
  30 C30          7.0603     1.1693     3.9712 C.ar         1    LIG   0.0000
  31 C31          5.9829     0.8016     3.1810 C.ar         1    LIG   0.0000
  32 S32          6.1048     0.2719     1.5701 S.3          1    LIG   0.0000
  33 H            1.2208    -6.7952    -1.8936 H            1    LIG   0.0000
  34 H            0.0270    -5.7871    -2.3683 H            1    LIG   0.0000
  35 H            1.5848    -5.4151    -2.6870 H            1    LIG   0.0000
  36 H            0.4406    -5.5227    -0.0382 H            1    LIG   0.0000
  37 H            1.9984    -5.1507    -0.3569 H            1    LIG   0.0000
  38 H           -1.3641    -3.3359     0.1962 H            1    LIG   0.0000
  39 H           -2.4591    -2.4058     0.9724 H            1    LIG   0.0000
  40 H           -2.4620    -2.4814    -0.6589 H            1    LIG   0.0000
  41 H           -2.5342    -0.0516     0.1010 H            1    LIG   0.0000
  42 H           -2.8626     2.1521    -0.1704 H            1    LIG   0.0000
  43 H           -2.1038     4.4104    -0.2975 H            1    LIG   0.0000
  44 H            0.2438     4.8681    -0.3096 H            1    LIG   0.0000
  45 H            1.8301     3.0795    -0.2087 H            1    LIG   0.0000
  46 H            2.4093     1.1777    -0.0848 H            1    LIG   0.0000
  47 H            2.8043     0.2878     2.5233 H            1    LIG   0.0000
  48 H            3.4647     1.2286     5.1416 H            1    LIG   0.0000
  49 H            7.4871     1.8567     5.8888 H            1    LIG   0.0000
  50 H            7.9999     1.1421     3.6301 H            1    LIG   0.0000
@<TRIPOS>BOND
   1        1        2 1
   2        2        3 1
   3        3        4 1
   4        4        5 2
   5        4        6 1
   6        6        7 2
   7        7        8 1
   8        7        9 1
   9        9       10 1
  10       10       11 ar
  11       11       12 ar
  12       12       13 ar
  13       13       14 ar
  14       14       15 ar
  15       15       10 ar
  16       15       16 1
  17       16       17 1
  18       17        6 1
  19       17       18 2
  20       18       19 1
  21       19       20 2
  22       19       21 1
  23       21       22 2
  24       22       23 1
  25       23       24 ar
  26       24       25 ar
  27       25       26 1
  28       26       27 ar
  29       26       28 ar
  30       25       29 ar
  31       29       30 ar
  32       30       31 ar
  33       31       23 ar
  34       31       32 1
  35       32       21 1
  36        1       33 1
  37        1       34 1
  38        1       35 1
  39        2       36 1
  40        2       37 1
  41        8       38 1
  42        8       39 1
  43        8       40 1
  44        9       41 1
  45       11       42 1
  46       12       43 1
  47       13       44 1
  48       14       45 1
  49       16       46 1
  50       22       47 1
  51       24       48 1
  52       29       49 1
  53       30       50 1

@<TRIPOS>MOLECULE

  50   53
SMALL
USER_CHARGES
@<TRIPOS>ATOM
   1 C1           1.0036    -5.5571     2.7167 C.3          1    LIG   0.0000
   2 C2           1.0767    -4.9814     1.3118 C.3          1    LIG   0.0000
   3 O3           0.7153    -3.6085     1.3435 O.3          1    LIG   0.0000
   4 C4           0.7385    -2.9924     0.1876 C.2          1    LIG   0.0000
   5 O5           1.0508    -3.5903    -0.8048 O.2          1    LIG   0.0000
   6 C6           0.3858    -1.5844     0.1073 C.2          1    LIG   0.0000
   7 C7          -0.9217    -1.3022     0.1012 C.2          1    LIG   0.0000
   8 C8          -1.8845    -2.4829     0.1576 C.3          1    LIG   0.0000
   9 N9          -1.5361    -0.0297     0.0433 N.pl3        1    LIG   0.0000
  10 C10         -0.9888     1.2681    -0.0816 C.ar         1    LIG   0.0000
  11 C11         -1.8802     2.3388    -0.1670 C.ar         1    LIG   0.0000
  12 C12         -1.4438     3.6608    -0.2476 C.ar         1    LIG   0.0000
  13 C13         -0.0769     3.9224    -0.2579 C.ar         1    LIG   0.0000
  14 C14          0.8490     2.8864    -0.1972 C.ar         1    LIG   0.0000
  15 C15          0.3869     1.5785    -0.1205 C.ar         1    LIG   0.0000
  16 N16          1.5160     0.7293    -0.0560 N.pl3        1    LIG   0.0000
  17 C17          1.5265    -0.6726     0.0438 C.2          1    LIG   0.0000
  18 N18          2.6876    -1.1845     0.0937 N.2          1    LIG   0.0000
  19 C19          3.8479    -0.4570     0.0554 C.2          1    LIG   0.0000
  20 O20          4.3441    -0.0647     1.0751 O.2          1    LIG   0.0000
  21 C21          4.4764    -0.1612    -1.2173 C.2          1    LIG   0.0000
  22 C22          4.7195     1.0684    -1.7374 C.2          1    LIG   0.0000
  23 C23          5.3569     1.0674    -3.0145 C.ar         1    LIG   0.0000
  24 C24          5.7802     2.0706    -3.8849 C.ar         1    LIG   0.0000
  25 C25          6.3911     1.7964    -5.1074 C.ar         1    LIG   0.0000
  26 N26          6.8149     2.8077    -5.9743 N.2          1    LIG   1.0000
  27 O27          7.3425     2.5221    -7.0250 O.co2        1    LIG   0.0000
  28 O28          6.6527     3.9783    -5.6715 O.co2        1    LIG  -1.0000
  29 C29          6.6134     0.4923    -5.5280 C.ar         1    LIG   0.0000
  30 C30          6.2152    -0.5515    -4.7075 C.ar         1    LIG   0.0000
  31 C31          5.6162    -0.1927    -3.5105 C.ar         1    LIG   0.0000
  32 S32          5.0458    -1.2956    -2.3490 S.3          1    LIG   0.0000
  33 H            1.2581    -6.5239     2.6944 H            1    LIG   0.0000
  34 H            1.6336    -5.0603     3.3137 H            1    LIG   0.0000
  35 H            0.0712    -5.4658     3.0663 H            1    LIG   0.0000
  36 H            2.0091    -5.0727     0.9622 H            1    LIG   0.0000
  37 H            0.4467    -5.4782     0.7148 H            1    LIG   0.0000
  38 H           -1.3641    -3.3359     0.1962 H            1    LIG   0.0000
  39 H           -2.4591    -2.4058     0.9724 H            1    LIG   0.0000
  40 H           -2.4620    -2.4814    -0.6589 H            1    LIG   0.0000
  41 H           -2.5342    -0.0516     0.1010 H            1    LIG   0.0000
  42 H           -2.8626     2.1521    -0.1704 H            1    LIG   0.0000
  43 H           -2.1038     4.4104    -0.2975 H            1    LIG   0.0000
  44 H            0.2438     4.8681    -0.3096 H            1    LIG   0.0000
  45 H            1.8301     3.0795    -0.2087 H            1    LIG   0.0000
  46 H            2.4093     1.1777    -0.0848 H            1    LIG   0.0000
  47 H            4.4708     1.9120    -1.2615 H            1    LIG   0.0000
  48 H            5.6400     3.0251    -3.6218 H            1    LIG   0.0000
  49 H            7.0530     0.3092    -6.4073 H            1    LIG   0.0000
  50 H            6.3523    -1.5081    -4.9645 H            1    LIG   0.0000
@<TRIPOS>BOND
   1        1        2 1
   2        2        3 1
   3        3        4 1
   4        4        5 2
   5        4        6 1
   6        6        7 2
   7        7        8 1
   8        7        9 1
   9        9       10 1
  10       10       11 ar
  11       11       12 ar
  12       12       13 ar
  13       13       14 ar
  14       14       15 ar
  15       15       10 ar
  16       15       16 1
  17       16       17 1
  18       17        6 1
  19       17       18 2
  20       18       19 1
  21       19       20 2
  22       19       21 1
  23       21       22 2
  24       22       23 1
  25       23       24 ar
  26       24       25 ar
  27       25       26 1
  28       26       27 ar
  29       26       28 ar
  30       25       29 ar
  31       29       30 ar
  32       30       31 ar
  33       31       23 ar
  34       31       32 1
  35       32       21 1
  36        1       33 1
  37        1       34 1
  38        1       35 1
  39        2       36 1
  40        2       37 1
  41        8       38 1
  42        8       39 1
  43        8       40 1
  44        9       41 1
  45       11       42 1
  46       12       43 1
  47       13       44 1
  48       14       45 1
  49       16       46 1
  50       22       47 1
  51       24       48 1
  52       29       49 1
  53       30       50 1

@<TRIPOS>MOLECULE

  50   53
SMALL
USER_CHARGES
@<TRIPOS>ATOM
   1 C1           1.0036    -5.5571     2.7167 C.3          1    LIG   0.0000
   2 C2           1.0767    -4.9814     1.3118 C.3          1    LIG   0.0000
   3 O3           0.7153    -3.6085     1.3435 O.3          1    LIG   0.0000
   4 C4           0.7385    -2.9924     0.1876 C.2          1    LIG   0.0000
   5 O5           1.0508    -3.5903    -0.8048 O.2          1    LIG   0.0000
   6 C6           0.3858    -1.5844     0.1073 C.2          1    LIG   0.0000
   7 C7          -0.9217    -1.3022     0.1012 C.2          1    LIG   0.0000
   8 C8          -1.8845    -2.4829     0.1576 C.3          1    LIG   0.0000
   9 N9          -1.5361    -0.0297     0.0433 N.pl3        1    LIG   0.0000
  10 C10         -0.9888     1.2681    -0.0816 C.ar         1    LIG   0.0000
  11 C11         -1.8802     2.3388    -0.1670 C.ar         1    LIG   0.0000
  12 C12         -1.4438     3.6608    -0.2476 C.ar         1    LIG   0.0000
  13 C13         -0.0769     3.9224    -0.2579 C.ar         1    LIG   0.0000
  14 C14          0.8490     2.8864    -0.1972 C.ar         1    LIG   0.0000
  15 C15          0.3869     1.5785    -0.1205 C.ar         1    LIG   0.0000
  16 N16          1.5160     0.7293    -0.0560 N.pl3        1    LIG   0.0000
  17 C17          1.5265    -0.6726     0.0438 C.2          1    LIG   0.0000
  18 N18          2.6876    -1.1845     0.0937 N.2          1    LIG   0.0000
  19 C19          3.8479    -0.4570     0.0554 C.2          1    LIG   0.0000
  20 O20          4.3441    -0.0647     1.0751 O.2          1    LIG   0.0000
  21 C21          4.4764    -0.1612    -1.2173 C.2          1    LIG   0.0000
  22 C22          5.7261    -0.5168    -1.6088 C.2          1    LIG   0.0000
  23 C23          6.0893    -0.0938    -2.9227 C.ar         1    LIG   0.0000
  24 C24          7.2357    -0.2378    -3.7028 C.ar         1    LIG   0.0000
  25 C25          7.3393     0.2861    -4.9903 C.ar         1    LIG   0.0000
  26 N26          8.4912     0.1361    -5.7675 N.2          1    LIG   1.0000
  27 O27          8.5351     0.6067    -6.8813 O.co2        1    LIG   0.0000
  28 O28          9.4525    -0.4694    -5.3228 O.co2        1    LIG  -1.0000
  29 C29          6.2921     0.9882    -5.5714 C.ar         1    LIG   0.0000
  30 C30          5.1237     1.1663    -4.8472 C.ar         1    LIG   0.0000
  31 C31          5.1031     0.6143    -3.5763 C.ar         1    LIG   0.0000
  32 S32          3.7852     0.7067    -2.5061 S.3          1    LIG   0.0000
  33 H            1.2581    -6.5239     2.6944 H            1    LIG   0.0000
  34 H            1.6336    -5.0603     3.3137 H            1    LIG   0.0000
  35 H            0.0712    -5.4658     3.0663 H            1    LIG   0.0000
  36 H            2.0091    -5.0727     0.9622 H            1    LIG   0.0000
  37 H            0.4467    -5.4782     0.7148 H            1    LIG   0.0000
  38 H           -1.3641    -3.3359     0.1962 H            1    LIG   0.0000
  39 H           -2.4591    -2.4058     0.9724 H            1    LIG   0.0000
  40 H           -2.4620    -2.4814    -0.6589 H            1    LIG   0.0000
  41 H           -2.5342    -0.0516     0.1010 H            1    LIG   0.0000
  42 H           -2.8626     2.1521    -0.1704 H            1    LIG   0.0000
  43 H           -2.1038     4.4104    -0.2975 H            1    LIG   0.0000
  44 H            0.2438     4.8681    -0.3096 H            1    LIG   0.0000
  45 H            1.8301     3.0795    -0.2087 H            1    LIG   0.0000
  46 H            2.4093     1.1777    -0.0848 H            1    LIG   0.0000
  47 H            6.3461    -1.0363    -1.0208 H            1    LIG   0.0000
  48 H            8.0148    -0.7369    -3.3236 H            1    LIG   0.0000
  49 H            6.3792     1.3588    -6.4961 H            1    LIG   0.0000
  50 H            4.3410     1.6643    -5.2203 H            1    LIG   0.0000
@<TRIPOS>BOND
   1        1        2 1
   2        2        3 1
   3        3        4 1
   4        4        5 2
   5        4        6 1
   6        6        7 2
   7        7        8 1
   8        7        9 1
   9        9       10 1
  10       10       11 ar
  11       11       12 ar
  12       12       13 ar
  13       13       14 ar
  14       14       15 ar
  15       15       10 ar
  16       15       16 1
  17       16       17 1
  18       17        6 1
  19       17       18 2
  20       18       19 1
  21       19       20 2
  22       19       21 1
  23       21       22 2
  24       22       23 1
  25       23       24 ar
  26       24       25 ar
  27       25       26 1
  28       26       27 ar
  29       26       28 ar
  30       25       29 ar
  31       29       30 ar
  32       30       31 ar
  33       31       23 ar
  34       31       32 1
  35       32       21 1
  36        1       33 1
  37        1       34 1
  38        1       35 1
  39        2       36 1
  40        2       37 1
  41        8       38 1
  42        8       39 1
  43        8       40 1
  44        9       41 1
  45       11       42 1
  46       12       43 1
  47       13       44 1
  48       14       45 1
  49       16       46 1
  50       22       47 1
  51       24       48 1
  52       29       49 1
  53       30       50 1

@<TRIPOS>MOLECULE

  50   53
SMALL
USER_CHARGES
@<TRIPOS>ATOM
   1 C1           1.0036    -5.5571     2.7167 C.3          1    LIG   0.0000
   2 C2           1.0767    -4.9814     1.3118 C.3          1    LIG   0.0000
   3 O3           0.7153    -3.6085     1.3435 O.3          1    LIG   0.0000
   4 C4           0.7385    -2.9924     0.1876 C.2          1    LIG   0.0000
   5 O5           1.0508    -3.5903    -0.8048 O.2          1    LIG   0.0000
   6 C6           0.3858    -1.5844     0.1073 C.2          1    LIG   0.0000
   7 C7          -0.9217    -1.3022     0.1012 C.2          1    LIG   0.0000
   8 C8          -1.8845    -2.4829     0.1576 C.3          1    LIG   0.0000
   9 N9          -1.5361    -0.0297     0.0433 N.pl3        1    LIG   0.0000
  10 C10         -0.9888     1.2681    -0.0816 C.ar         1    LIG   0.0000
  11 C11         -1.8802     2.3388    -0.1670 C.ar         1    LIG   0.0000
  12 C12         -1.4438     3.6608    -0.2476 C.ar         1    LIG   0.0000
  13 C13         -0.0769     3.9224    -0.2579 C.ar         1    LIG   0.0000
  14 C14          0.8490     2.8864    -0.1972 C.ar         1    LIG   0.0000
  15 C15          0.3869     1.5785    -0.1205 C.ar         1    LIG   0.0000
  16 N16          1.5160     0.7293    -0.0560 N.pl3        1    LIG   0.0000
  17 C17          1.5265    -0.6726     0.0438 C.2          1    LIG   0.0000
  18 N18          2.6876    -1.1845     0.0937 N.2          1    LIG   0.0000
  19 C19          3.8479    -0.4570     0.0554 C.2          1    LIG   0.0000
  20 O20          4.3441    -0.0647     1.0751 O.2          1    LIG   0.0000
  21 C21          4.4764    -0.1612    -1.2173 C.2          1    LIG   0.0000
  22 C22          4.4367    -0.9226    -2.3399 C.2          1    LIG   0.0000
  23 C23          5.1455    -0.3868    -3.4570 C.ar         1    LIG   0.0000
  24 C24          5.3593    -0.8198    -4.7647 C.ar         1    LIG   0.0000
  25 C25          6.1122    -0.0911    -5.6839 C.ar         1    LIG   0.0000
  26 N26          6.3208    -0.5306    -6.9943 N.2          1    LIG   1.0000
  27 O27          6.9803     0.1367    -7.7584 O.co2        1    LIG   0.0000
  28 O28          5.8379    -1.5869    -7.3675 O.co2        1    LIG  -1.0000
  29 C29          6.6963     1.1206    -5.3410 C.ar         1    LIG   0.0000
  30 C30          6.5211     1.6066    -4.0548 C.ar         1    LIG   0.0000
  31 C31          5.7596     0.8214    -3.2039 C.ar         1    LIG   0.0000
  32 S32          5.4125     1.2099    -1.5855 S.3          1    LIG   0.0000
  33 H            1.2581    -6.5239     2.6944 H            1    LIG   0.0000
  34 H            1.6336    -5.0603     3.3137 H            1    LIG   0.0000
  35 H            0.0712    -5.4658     3.0663 H            1    LIG   0.0000
  36 H            2.0091    -5.0727     0.9622 H            1    LIG   0.0000
  37 H            0.4467    -5.4782     0.7148 H            1    LIG   0.0000
  38 H           -1.3641    -3.3359     0.1962 H            1    LIG   0.0000
  39 H           -2.4591    -2.4058     0.9724 H            1    LIG   0.0000
  40 H           -2.4620    -2.4814    -0.6589 H            1    LIG   0.0000
  41 H           -2.5342    -0.0516     0.1010 H            1    LIG   0.0000
  42 H           -2.8626     2.1521    -0.1704 H            1    LIG   0.0000
  43 H           -2.1038     4.4104    -0.2975 H            1    LIG   0.0000
  44 H            0.2438     4.8681    -0.3096 H            1    LIG   0.0000
  45 H            1.8301     3.0795    -0.2087 H            1    LIG   0.0000
  46 H            2.4093     1.1777    -0.0848 H            1    LIG   0.0000
  47 H            3.9475    -1.7938    -2.3814 H            1    LIG   0.0000
  48 H            4.9566    -1.6879    -5.0548 H            1    LIG   0.0000
  49 H            7.2339     1.6338    -6.0101 H            1    LIG   0.0000
  50 H            6.9211     2.4738    -3.7580 H            1    LIG   0.0000
@<TRIPOS>BOND
   1        1        2 1
   2        2        3 1
   3        3        4 1
   4        4        5 2
   5        4        6 1
   6        6        7 2
   7        7        8 1
   8        7        9 1
   9        9       10 1
  10       10       11 ar
  11       11       12 ar
  12       12       13 ar
  13       13       14 ar
  14       14       15 ar
  15       15       10 ar
  16       15       16 1
  17       16       17 1
  18       17        6 1
  19       17       18 2
  20       18       19 1
  21       19       20 2
  22       19       21 1
  23       21       22 2
  24       22       23 1
  25       23       24 ar
  26       24       25 ar
  27       25       26 1
  28       26       27 ar
  29       26       28 ar
  30       25       29 ar
  31       29       30 ar
  32       30       31 ar
  33       31       23 ar
  34       31       32 1
  35       32       21 1
  36        1       33 1
  37        1       34 1
  38        1       35 1
  39        2       36 1
  40        2       37 1
  41        8       38 1
  42        8       39 1
  43        8       40 1
  44        9       41 1
  45       11       42 1
  46       12       43 1
  47       13       44 1
  48       14       45 1
  49       16       46 1
  50       22       47 1
  51       24       48 1
  52       29       49 1
  53       30       50 1

@<TRIPOS>MOLECULE

  50   53
SMALL
USER_CHARGES
@<TRIPOS>ATOM
   1 C1           1.0036    -5.5571     2.7167 C.3          1    LIG   0.0000
   2 C2           1.0767    -4.9814     1.3118 C.3          1    LIG   0.0000
   3 O3           0.7153    -3.6085     1.3435 O.3          1    LIG   0.0000
   4 C4           0.7385    -2.9924     0.1876 C.2          1    LIG   0.0000
   5 O5           1.0508    -3.5903    -0.8048 O.2          1    LIG   0.0000
   6 C6           0.3858    -1.5844     0.1073 C.2          1    LIG   0.0000
   7 C7          -0.9217    -1.3022     0.1012 C.2          1    LIG   0.0000
   8 C8          -1.8845    -2.4829     0.1576 C.3          1    LIG   0.0000
   9 N9          -1.5361    -0.0297     0.0433 N.pl3        1    LIG   0.0000
  10 C10         -0.9888     1.2681    -0.0816 C.ar         1    LIG   0.0000
  11 C11         -1.8802     2.3388    -0.1670 C.ar         1    LIG   0.0000
  12 C12         -1.4438     3.6608    -0.2476 C.ar         1    LIG   0.0000
  13 C13         -0.0769     3.9224    -0.2579 C.ar         1    LIG   0.0000
  14 C14          0.8490     2.8864    -0.1972 C.ar         1    LIG   0.0000
  15 C15          0.3869     1.5785    -0.1205 C.ar         1    LIG   0.0000
  16 N16          1.5160     0.7293    -0.0560 N.pl3        1    LIG   0.0000
  17 C17          1.5265    -0.6726     0.0438 C.2          1    LIG   0.0000
  18 N18          2.6876    -1.1845     0.0937 N.2          1    LIG   0.0000
  19 C19          3.8479    -0.4570     0.0554 C.2          1    LIG   0.0000
  20 O20          4.3681    -0.2122    -0.9980 O.2          1    LIG   0.0000
  21 C21          4.4474     0.0170     1.2874 C.2          1    LIG   0.0000
  22 C22          5.6836    -0.2851     1.7587 C.2          1    LIG   0.0000
  23 C23          6.0201     0.3265     3.0037 C.ar         1    LIG   0.0000
  24 C24          7.1476     0.2956     3.8229 C.ar         1    LIG   0.0000
  25 C25          7.2244     1.0010     5.0226 C.ar         1    LIG   0.0000
  26 N26          8.3591     0.9668     5.8381 N.2          1    LIG   1.0000
  27 O27          8.3812     1.5971     6.8707 O.co2        1    LIG   0.0000
  28 O28          9.3272     0.3014     5.5087 O.co2        1    LIG  -1.0000
  29 C29          6.1680     1.7821     5.4708 C.ar         1    LIG   0.0000
  30 C30          5.0173     1.8548     4.7014 C.ar         1    LIG   0.0000
  31 C31          5.0229     1.1240     3.5240 C.ar         1    LIG   0.0000
  32 S32          3.7281     1.0575     2.4242 S.3          1    LIG   0.0000
  33 H            1.2581    -6.5239     2.6944 H            1    LIG   0.0000
  34 H            1.6336    -5.0603     3.3137 H            1    LIG   0.0000
  35 H            0.0712    -5.4658     3.0663 H            1    LIG   0.0000
  36 H            2.0091    -5.0727     0.9622 H            1    LIG   0.0000
  37 H            0.4467    -5.4782     0.7148 H            1    LIG   0.0000
  38 H           -1.3641    -3.3359     0.1962 H            1    LIG   0.0000
  39 H           -2.4591    -2.4058     0.9724 H            1    LIG   0.0000
  40 H           -2.4620    -2.4814    -0.6589 H            1    LIG   0.0000
  41 H           -2.5342    -0.0516     0.1010 H            1    LIG   0.0000
  42 H           -2.8626     2.1521    -0.1704 H            1    LIG   0.0000
  43 H           -2.1038     4.4104    -0.2975 H            1    LIG   0.0000
  44 H            0.2438     4.8681    -0.3096 H            1    LIG   0.0000
  45 H            1.8301     3.0795    -0.2087 H            1    LIG   0.0000
  46 H            2.4093     1.1777    -0.0848 H            1    LIG   0.0000
  47 H            6.3117    -0.8909     1.2703 H            1    LIG   0.0000
  48 H            7.9327    -0.2546     3.5385 H            1    LIG   0.0000
  49 H            6.2359     2.2834     6.3334 H            1    LIG   0.0000
  50 H            4.2286     2.4029     4.9799 H            1    LIG   0.0000
@<TRIPOS>BOND
   1        1        2 1
   2        2        3 1
   3        3        4 1
   4        4        5 2
   5        4        6 1
   6        6        7 2
   7        7        8 1
   8        7        9 1
   9        9       10 1
  10       10       11 ar
  11       11       12 ar
  12       12       13 ar
  13       13       14 ar
  14       14       15 ar
  15       15       10 ar
  16       15       16 1
  17       16       17 1
  18       17        6 1
  19       17       18 2
  20       18       19 1
  21       19       20 2
  22       19       21 1
  23       21       22 2
  24       22       23 1
  25       23       24 ar
  26       24       25 ar
  27       25       26 1
  28       26       27 ar
  29       26       28 ar
  30       25       29 ar
  31       29       30 ar
  32       30       31 ar
  33       31       23 ar
  34       31       32 1
  35       32       21 1
  36        1       33 1
  37        1       34 1
  38        1       35 1
  39        2       36 1
  40        2       37 1
  41        8       38 1
  42        8       39 1
  43        8       40 1
  44        9       41 1
  45       11       42 1
  46       12       43 1
  47       13       44 1
  48       14       45 1
  49       16       46 1
  50       22       47 1
  51       24       48 1
  52       29       49 1
  53       30       50 1

@<TRIPOS>MOLECULE

  50   53
SMALL
USER_CHARGES
@<TRIPOS>ATOM
   1 C1           1.0036    -5.5571     2.7167 C.3          1    LIG   0.0000
   2 C2           1.0767    -4.9814     1.3118 C.3          1    LIG   0.0000
   3 O3           0.7153    -3.6085     1.3435 O.3          1    LIG   0.0000
   4 C4           0.7385    -2.9924     0.1876 C.2          1    LIG   0.0000
   5 O5           1.0508    -3.5903    -0.8048 O.2          1    LIG   0.0000
   6 C6           0.3858    -1.5844     0.1073 C.2          1    LIG   0.0000
   7 C7          -0.9217    -1.3022     0.1012 C.2          1    LIG   0.0000
   8 C8          -1.8845    -2.4829     0.1576 C.3          1    LIG   0.0000
   9 N9          -1.5361    -0.0297     0.0433 N.pl3        1    LIG   0.0000
  10 C10         -0.9888     1.2681    -0.0816 C.ar         1    LIG   0.0000
  11 C11         -1.8802     2.3388    -0.1670 C.ar         1    LIG   0.0000
  12 C12         -1.4438     3.6608    -0.2476 C.ar         1    LIG   0.0000
  13 C13         -0.0769     3.9224    -0.2579 C.ar         1    LIG   0.0000
  14 C14          0.8490     2.8864    -0.1972 C.ar         1    LIG   0.0000
  15 C15          0.3869     1.5785    -0.1205 C.ar         1    LIG   0.0000
  16 N16          1.5160     0.7293    -0.0560 N.pl3        1    LIG   0.0000
  17 C17          1.5265    -0.6726     0.0438 C.2          1    LIG   0.0000
  18 N18          2.6876    -1.1845     0.0937 N.2          1    LIG   0.0000
  19 C19          3.8479    -0.4570     0.0554 C.2          1    LIG   0.0000
  20 O20          4.3681    -0.2122    -0.9980 O.2          1    LIG   0.0000
  21 C21          4.4474     0.0170     1.2874 C.2          1    LIG   0.0000
  22 C22          4.6891     1.3077     1.6297 C.2          1    LIG   0.0000
  23 C23          5.2896     1.4890     2.9119 C.ar         1    LIG   0.0000
  24 C24          5.6952     2.6059     3.6407 C.ar         1    LIG   0.0000
  25 C25          6.2724     2.5089     4.9057 C.ar         1    LIG   0.0000
  26 N26          6.6749     3.6335     5.6315 N.2          1    LIG   1.0000
  27 O27          7.1700     3.5008     6.7276 O.co2        1    LIG   0.0000
  28 O28          6.5270     4.7489     5.1600 O.co2        1    LIG  -1.0000
  29 C29          6.4764     1.2782     5.5146 C.ar         1    LIG   0.0000
  30 C30          6.0946     0.1281     4.8416 C.ar         1    LIG   0.0000
  31 C31          5.5289     0.3125     3.5900 C.ar         1    LIG   0.0000
  32 S32          4.9887    -0.9449     2.5812 S.3          1    LIG   0.0000
  33 H            1.2581    -6.5239     2.6944 H            1    LIG   0.0000
  34 H            1.6336    -5.0603     3.3137 H            1    LIG   0.0000
  35 H            0.0712    -5.4658     3.0663 H            1    LIG   0.0000
  36 H            2.0091    -5.0727     0.9622 H            1    LIG   0.0000
  37 H            0.4467    -5.4782     0.7148 H            1    LIG   0.0000
  38 H           -1.3641    -3.3359     0.1962 H            1    LIG   0.0000
  39 H           -2.4591    -2.4058     0.9724 H            1    LIG   0.0000
  40 H           -2.4620    -2.4814    -0.6589 H            1    LIG   0.0000
  41 H           -2.5342    -0.0516     0.1010 H            1    LIG   0.0000
  42 H           -2.8626     2.1521    -0.1704 H            1    LIG   0.0000
  43 H           -2.1038     4.4104    -0.2975 H            1    LIG   0.0000
  44 H            0.2438     4.8681    -0.3096 H            1    LIG   0.0000
  45 H            1.8301     3.0795    -0.2087 H            1    LIG   0.0000
  46 H            2.4093     1.1777    -0.0848 H            1    LIG   0.0000
  47 H            4.4634     2.0744     1.0287 H            1    LIG   0.0000
  48 H            5.5669     3.5131     3.2399 H            1    LIG   0.0000
  49 H            6.8913     1.2223     6.4228 H            1    LIG   0.0000
  50 H            6.2200    -0.7820     5.2364 H            1    LIG   0.0000
@<TRIPOS>BOND
   1        1        2 1
   2        2        3 1
   3        3        4 1
   4        4        5 2
   5        4        6 1
   6        6        7 2
   7        7        8 1
   8        7        9 1
   9        9       10 1
  10       10       11 ar
  11       11       12 ar
  12       12       13 ar
  13       13       14 ar
  14       14       15 ar
  15       15       10 ar
  16       15       16 1
  17       16       17 1
  18       17        6 1
  19       17       18 2
  20       18       19 1
  21       19       20 2
  22       19       21 1
  23       21       22 2
  24       22       23 1
  25       23       24 ar
  26       24       25 ar
  27       25       26 1
  28       26       27 ar
  29       26       28 ar
  30       25       29 ar
  31       29       30 ar
  32       30       31 ar
  33       31       23 ar
  34       31       32 1
  35       32       21 1
  36        1       33 1
  37        1       34 1
  38        1       35 1
  39        2       36 1
  40        2       37 1
  41        8       38 1
  42        8       39 1
  43        8       40 1
  44        9       41 1
  45       11       42 1
  46       12       43 1
  47       13       44 1
  48       14       45 1
  49       16       46 1
  50       22       47 1
  51       24       48 1
  52       29       49 1
  53       30       50 1

@<TRIPOS>MOLECULE

  50   53
SMALL
USER_CHARGES
@<TRIPOS>ATOM
   1 C1           1.0036    -5.5571     2.7167 C.3          1    LIG   0.0000
   2 C2           1.0767    -4.9814     1.3118 C.3          1    LIG   0.0000
   3 O3           0.7153    -3.6085     1.3435 O.3          1    LIG   0.0000
   4 C4           0.7385    -2.9924     0.1876 C.2          1    LIG   0.0000
   5 O5           1.0508    -3.5903    -0.8048 O.2          1    LIG   0.0000
   6 C6           0.3858    -1.5844     0.1073 C.2          1    LIG   0.0000
   7 C7          -0.9217    -1.3022     0.1012 C.2          1    LIG   0.0000
   8 C8          -1.8845    -2.4829     0.1576 C.3          1    LIG   0.0000
   9 N9          -1.5361    -0.0297     0.0433 N.pl3        1    LIG   0.0000
  10 C10         -0.9888     1.2681    -0.0816 C.ar         1    LIG   0.0000
  11 C11         -1.8802     2.3388    -0.1670 C.ar         1    LIG   0.0000
  12 C12         -1.4438     3.6608    -0.2476 C.ar         1    LIG   0.0000
  13 C13         -0.0769     3.9224    -0.2579 C.ar         1    LIG   0.0000
  14 C14          0.8490     2.8864    -0.1972 C.ar         1    LIG   0.0000
  15 C15          0.3869     1.5785    -0.1205 C.ar         1    LIG   0.0000
  16 N16          1.5160     0.7293    -0.0560 N.pl3        1    LIG   0.0000
  17 C17          1.5265    -0.6726     0.0438 C.2          1    LIG   0.0000
  18 N18          2.6876    -1.1845     0.0937 N.2          1    LIG   0.0000
  19 C19          3.8479    -0.4570     0.0554 C.2          1    LIG   0.0000
  20 O20          4.3681    -0.2122    -0.9980 O.2          1    LIG   0.0000
  21 C21          4.4474     0.0170     1.2874 C.2          1    LIG   0.0000
  22 C22          3.7985     0.3466     2.4328 C.2          1    LIG   0.0000
  23 C23          4.6413     0.7837     3.4987 C.ar         1    LIG   0.0000
  24 C24          4.4067     1.2037     4.8070 C.ar         1    LIG   0.0000
  25 C25          5.4328     1.5903     5.6676 C.ar         1    LIG   0.0000
  26 N26          5.1903     2.0085     6.9790 N.2          1    LIG   1.0000
  27 O27          6.1132     2.3334     7.6909 O.co2        1    LIG   0.0000
  28 O28          4.0480     2.0460     7.4059 O.co2        1    LIG  -1.0000
  29 C29          6.7602     1.5771     5.2615 C.ar         1    LIG   0.0000
  30 C30          7.0603     1.1693     3.9712 C.ar         1    LIG   0.0000
  31 C31          5.9829     0.8016     3.1810 C.ar         1    LIG   0.0000
  32 S32          6.1048     0.2719     1.5701 S.3          1    LIG   0.0000
  33 H            1.2581    -6.5239     2.6944 H            1    LIG   0.0000
  34 H            1.6336    -5.0603     3.3137 H            1    LIG   0.0000
  35 H            0.0712    -5.4658     3.0663 H            1    LIG   0.0000
  36 H            2.0091    -5.0727     0.9622 H            1    LIG   0.0000
  37 H            0.4467    -5.4782     0.7148 H            1    LIG   0.0000
  38 H           -1.3641    -3.3359     0.1962 H            1    LIG   0.0000
  39 H           -2.4591    -2.4058     0.9724 H            1    LIG   0.0000
  40 H           -2.4620    -2.4814    -0.6589 H            1    LIG   0.0000
  41 H           -2.5342    -0.0516     0.1010 H            1    LIG   0.0000
  42 H           -2.8626     2.1521    -0.1704 H            1    LIG   0.0000
  43 H           -2.1038     4.4104    -0.2975 H            1    LIG   0.0000
  44 H            0.2438     4.8681    -0.3096 H            1    LIG   0.0000
  45 H            1.8301     3.0795    -0.2087 H            1    LIG   0.0000
  46 H            2.4093     1.1777    -0.0848 H            1    LIG   0.0000
  47 H            2.8043     0.2878     2.5233 H            1    LIG   0.0000
  48 H            3.4647     1.2286     5.1416 H            1    LIG   0.0000
  49 H            7.4871     1.8567     5.8888 H            1    LIG   0.0000
  50 H            7.9999     1.1421     3.6301 H            1    LIG   0.0000
@<TRIPOS>BOND
   1        1        2 1
   2        2        3 1
   3        3        4 1
   4        4        5 2
   5        4        6 1
   6        6        7 2
   7        7        8 1
   8        7        9 1
   9        9       10 1
  10       10       11 ar
  11       11       12 ar
  12       12       13 ar
  13       13       14 ar
  14       14       15 ar
  15       15       10 ar
  16       15       16 1
  17       16       17 1
  18       17        6 1
  19       17       18 2
  20       18       19 1
  21       19       20 2
  22       19       21 1
  23       21       22 2
  24       22       23 1
  25       23       24 ar
  26       24       25 ar
  27       25       26 1
  28       26       27 ar
  29       26       28 ar
  30       25       29 ar
  31       29       30 ar
  32       30       31 ar
  33       31       23 ar
  34       31       32 1
  35       32       21 1
  36        1       33 1
  37        1       34 1
  38        1       35 1
  39        2       36 1
  40        2       37 1
  41        8       38 1
  42        8       39 1
  43        8       40 1
  44        9       41 1
  45       11       42 1
  46       12       43 1
  47       13       44 1
  48       14       45 1
  49       16       46 1
  50       22       47 1
  51       24       48 1
  52       29       49 1
  53       30       50 1

@<TRIPOS>MOLECULE

  50   53
SMALL
USER_CHARGES
@<TRIPOS>ATOM
   1 C1           2.8501    -5.1948    -0.0481 C.3          1    LIG   0.0000
   2 C2           1.3331    -5.1033    -0.0192 C.3          1    LIG   0.0000
   3 O3           0.9452    -3.7980     0.3833 O.3          1    LIG   0.0000
   4 C4           0.7907    -2.9313    -0.5868 C.2          1    LIG   0.0000
   5 O5           0.9759    -3.2648    -1.7245 O.2          1    LIG   0.0000
   6 C6           0.3955    -1.5680    -0.2855 C.2          1    LIG   0.0000
   7 C7           1.3812    -0.7566     0.1360 C.2          1    LIG   0.0000
   8 C8           2.7867    -1.3311     0.2000 C.3          1    LIG   0.0000
   9 N9           1.2455     0.5952     0.5413 N.pl3        1    LIG   0.0000
  10 C10          0.2141     1.5343     0.2529 C.ar         1    LIG   0.0000
  11 C11          0.5765     2.8768     0.3040 C.ar         1    LIG   0.0000
  12 C12         -0.3620     3.8827     0.1665 C.ar         1    LIG   0.0000
  13 C13         -1.7054     3.5658     0.0100 C.ar         1    LIG   0.0000
  14 C14         -2.0872     2.2426    -0.1169 C.ar         1    LIG   0.0000
  15 C15         -1.1303     1.2309    -0.0581 C.ar         1    LIG   0.0000
  16 N16         -1.6962    -0.0179    -0.3429 N.pl3        1    LIG   0.0000
  17 C17         -1.0348    -1.2591    -0.4676 C.2          1    LIG   0.0000
  18 N18         -1.7731    -2.2265    -0.8115 N.2          1    LIG   0.0000
  19 C19         -3.1171    -2.1163    -1.0534 C.2          1    LIG   0.0000
  20 O20         -3.5090    -1.8627    -2.1589 O.2          1    LIG   0.0000
  21 C21         -4.0659    -2.3059     0.0264 C.2          1    LIG   0.0000
  22 C22         -3.8627    -2.0443     1.3424 C.2          1    LIG   0.0000
  23 C23         -4.9756    -2.3235     2.1913 C.ar         1    LIG   0.0000
  24 C24         -5.1998    -2.2058     3.5622 C.ar         1    LIG   0.0000
  25 C25         -6.4091    -2.5584     4.1589 C.ar         1    LIG   0.0000
  26 N26         -6.6274    -2.4358     5.5340 N.2          1    LIG   1.0000
  27 O27         -7.6947    -2.7528     6.0078 O.co2        1    LIG   0.0000
  28 O28         -5.7418    -2.0091     6.2566 O.co2        1    LIG  -1.0000
  29 C29         -7.4682    -3.0519     3.4094 C.ar         1    LIG   0.0000
  30 C30         -7.3089    -3.1932     2.0397 C.ar         1    LIG   0.0000
  31 C31         -6.0769    -2.8200     1.5266 C.ar         1    LIG   0.0000
  32 S32         -5.6503    -2.9070    -0.1168 S.3          1    LIG   0.0000
  33 H            3.1233    -6.1141    -0.3315 H            1    LIG   0.0000
  34 H            3.2122    -4.5248    -0.6961 H            1    LIG   0.0000
  35 H            3.2129    -5.0058     0.8644 H            1    LIG   0.0000
  36 H            0.9704    -5.2924    -0.9317 H            1    LIG   0.0000
  37 H            0.9711    -5.7734     0.6288 H            1    LIG   0.0000
  38 H            2.7717    -2.2834    -0.1048 H            1    LIG   0.0000
  39 H            3.3911    -0.8004    -0.3941 H            1    LIG   0.0000
  40 H            3.1220    -1.2876     1.1411 H            1    LIG   0.0000
  41 H            1.9861     0.9420     1.1168 H            1    LIG   0.0000
  42 H            1.5366     3.1193     0.4431 H            1    LIG   0.0000
  43 H           -0.0732     4.8400     0.1798 H            1    LIG   0.0000
  44 H           -2.3934     4.2913    -0.0108 H            1    LIG   0.0000
  45 H           -3.0508     2.0114    -0.2509 H            1    LIG   0.0000
  46 H           -2.6875    -0.0323    -0.4736 H            1    LIG   0.0000
  47 H           -2.9979    -1.6830     1.6912 H            1    LIG   0.0000
  48 H           -4.4636    -1.8543     4.1405 H            1    LIG   0.0000
  49 H           -8.3307    -3.3011     3.8497 H            1    LIG   0.0000
  50 H           -8.0408    -3.5441     1.4555 H            1    LIG   0.0000
@<TRIPOS>BOND
   1        1        2 1
   2        2        3 1
   3        3        4 1
   4        4        5 2
   5        4        6 1
   6        6        7 2
   7        7        8 1
   8        7        9 1
   9        9       10 1
  10       10       11 ar
  11       11       12 ar
  12       12       13 ar
  13       13       14 ar
  14       14       15 ar
  15       15       10 ar
  16       15       16 1
  17       16       17 1
  18       17        6 1
  19       17       18 2
  20       18       19 1
  21       19       20 2
  22       19       21 1
  23       21       22 2
  24       22       23 1
  25       23       24 ar
  26       24       25 ar
  27       25       26 1
  28       26       27 ar
  29       26       28 ar
  30       25       29 ar
  31       29       30 ar
  32       30       31 ar
  33       31       23 ar
  34       31       32 1
  35       32       21 1
  36        1       33 1
  37        1       34 1
  38        1       35 1
  39        2       36 1
  40        2       37 1
  41        8       38 1
  42        8       39 1
  43        8       40 1
  44        9       41 1
  45       11       42 1
  46       12       43 1
  47       13       44 1
  48       14       45 1
  49       16       46 1
  50       22       47 1
  51       24       48 1
  52       29       49 1
  53       30       50 1

@<TRIPOS>MOLECULE

  50   53
SMALL
USER_CHARGES
@<TRIPOS>ATOM
   1 C1           2.8501    -5.1948    -0.0481 C.3          1    LIG   0.0000
   2 C2           1.3331    -5.1033    -0.0192 C.3          1    LIG   0.0000
   3 O3           0.9452    -3.7980     0.3833 O.3          1    LIG   0.0000
   4 C4           0.7907    -2.9313    -0.5868 C.2          1    LIG   0.0000
   5 O5           0.9759    -3.2648    -1.7245 O.2          1    LIG   0.0000
   6 C6           0.3955    -1.5680    -0.2855 C.2          1    LIG   0.0000
   7 C7           1.3812    -0.7566     0.1360 C.2          1    LIG   0.0000
   8 C8           2.7867    -1.3311     0.2000 C.3          1    LIG   0.0000
   9 N9           1.2455     0.5952     0.5413 N.pl3        1    LIG   0.0000
  10 C10          0.2141     1.5343     0.2529 C.ar         1    LIG   0.0000
  11 C11          0.5765     2.8768     0.3040 C.ar         1    LIG   0.0000
  12 C12         -0.3620     3.8827     0.1665 C.ar         1    LIG   0.0000
  13 C13         -1.7054     3.5658     0.0100 C.ar         1    LIG   0.0000
  14 C14         -2.0872     2.2426    -0.1169 C.ar         1    LIG   0.0000
  15 C15         -1.1303     1.2309    -0.0581 C.ar         1    LIG   0.0000
  16 N16         -1.6962    -0.0179    -0.3429 N.pl3        1    LIG   0.0000
  17 C17         -1.0348    -1.2591    -0.4676 C.2          1    LIG   0.0000
  18 N18         -1.7731    -2.2265    -0.8115 N.2          1    LIG   0.0000
  19 C19         -3.1171    -2.1163    -1.0534 C.2          1    LIG   0.0000
  20 O20         -3.9024    -2.2732    -0.1597 O.2          1    LIG   0.0000
  21 C21         -3.5906    -1.8100    -2.3891 C.2          1    LIG   0.0000
  22 C22         -2.9882    -2.1376    -3.5601 C.2          1    LIG   0.0000
  23 C23         -3.6792    -1.7105    -4.7336 C.ar         1    LIG   0.0000
  24 C24         -3.4304    -1.8302    -6.1000 C.ar         1    LIG   0.0000
  25 C25         -4.2863    -1.3082    -7.0684 C.ar         1    LIG   0.0000
  26 N26         -4.0313    -1.4338    -8.4369 N.2          1    LIG   1.0000
  27 O27         -4.8042    -0.9659    -9.2418 O.co2        1    LIG   0.0000
  28 O28         -3.0295    -2.0153    -8.8199 O.co2        1    LIG  -1.0000
  29 C29         -5.4474    -0.6326    -6.7183 C.ar         1    LIG   0.0000
  30 C30         -5.7522    -0.4794    -5.3748 C.ar         1    LIG   0.0000
  31 C31         -4.8495    -1.0277    -4.4777 C.ar         1    LIG   0.0000
  32 S32         -5.0105    -0.9625    -2.7864 S.3          1    LIG   0.0000
  33 H            3.1233    -6.1141    -0.3315 H            1    LIG   0.0000
  34 H            3.2122    -4.5248    -0.6961 H            1    LIG   0.0000
  35 H            3.2129    -5.0058     0.8644 H            1    LIG   0.0000
  36 H            0.9704    -5.2924    -0.9317 H            1    LIG   0.0000
  37 H            0.9711    -5.7734     0.6288 H            1    LIG   0.0000
  38 H            2.7717    -2.2834    -0.1048 H            1    LIG   0.0000
  39 H            3.3911    -0.8004    -0.3941 H            1    LIG   0.0000
  40 H            3.1220    -1.2876     1.1411 H            1    LIG   0.0000
  41 H            1.9861     0.9420     1.1168 H            1    LIG   0.0000
  42 H            1.5366     3.1193     0.4431 H            1    LIG   0.0000
  43 H           -0.0732     4.8400     0.1798 H            1    LIG   0.0000
  44 H           -2.3934     4.2913    -0.0108 H            1    LIG   0.0000
  45 H           -3.0508     2.0114    -0.2509 H            1    LIG   0.0000
  46 H           -2.6875    -0.0323    -0.4736 H            1    LIG   0.0000
  47 H           -2.1247    -2.6406    -3.5979 H            1    LIG   0.0000
  48 H           -2.6048    -2.3098    -6.3974 H            1    LIG   0.0000
  49 H           -6.0532    -0.2630    -7.4229 H            1    LIG   0.0000
  50 H           -6.5759    -0.0009    -5.0706 H            1    LIG   0.0000
@<TRIPOS>BOND
   1        1        2 1
   2        2        3 1
   3        3        4 1
   4        4        5 2
   5        4        6 1
   6        6        7 2
   7        7        8 1
   8        7        9 1
   9        9       10 1
  10       10       11 ar
  11       11       12 ar
  12       12       13 ar
  13       13       14 ar
  14       14       15 ar
  15       15       10 ar
  16       15       16 1
  17       16       17 1
  18       17        6 1
  19       17       18 2
  20       18       19 1
  21       19       20 2
  22       19       21 1
  23       21       22 2
  24       22       23 1
  25       23       24 ar
  26       24       25 ar
  27       25       26 1
  28       26       27 ar
  29       26       28 ar
  30       25       29 ar
  31       29       30 ar
  32       30       31 ar
  33       31       23 ar
  34       31       32 1
  35       32       21 1
  36        1       33 1
  37        1       34 1
  38        1       35 1
  39        2       36 1
  40        2       37 1
  41        8       38 1
  42        8       39 1
  43        8       40 1
  44        9       41 1
  45       11       42 1
  46       12       43 1
  47       13       44 1
  48       14       45 1
  49       16       46 1
  50       22       47 1
  51       24       48 1
  52       29       49 1
  53       30       50 1

