@<TRIPOS>MOLECULE
*****
 50 53 0 0 0
SMALL
USER_CHARGES

@<TRIPOS>ATOM
      1 C1          1.0036   -5.5571    2.7167 C.3     1  LIG1        0.0000
      2 C2          1.0767   -4.9814    1.3118 C.3     1  LIG1        0.0000
      3 O3          0.7153   -3.6085    1.3435 O.3     1  LIG1        0.0000
      4 C4          0.7385   -2.9924    0.1876 C.2     1  LIG1        0.0000
      5 O5          1.0508   -3.5903   -0.8048 O.2     1  LIG1        0.0000
      6 C6          0.3858   -1.5844    0.1073 C.2     1  LIG1        0.0000
      7 C7         -0.9217   -1.3022    0.1012 C.2     1  LIG1        0.0000
      8 C8         -1.8845   -2.4829    0.1576 C.3     1  LIG1        0.0000
      9 N9         -1.5361   -0.0297    0.0433 N.pl3   1  LIG1        0.0000
     10 C10        -0.9888    1.2681   -0.0816 C.3     1  LIG1        0.0000
     11 C11        -1.8802    2.3388   -0.1670 C.3     1  LIG1        0.0000
     12 C12        -1.4438    3.6608   -0.2476 C.3     1  LIG1        0.0000
     13 C13        -0.0769    3.9224   -0.2579 C.3     1  LIG1        0.0000
     14 C14         0.8490    2.8864   -0.1972 C.3     1  LIG1        0.0000
     15 C15         0.3869    1.5785   -0.1205 C.3     1  LIG1        0.0000
     16 N16         1.5160    0.7293   -0.0560 N.pl3   1  LIG1        0.0000
     17 C17         1.5265   -0.6726    0.0438 C.2     1  LIG1        0.0000
     18 N18         2.6876   -1.1845    0.0937 N.am    1  LIG1        0.0000
     19 C19         3.8479   -0.4570    0.0554 C.2     1  LIG1        0.0000
     20 O20         4.3441   -0.0647    1.0751 O.2     1  LIG1        0.0000
     21 C21         4.4764   -0.1612   -1.2173 C.2     1  LIG1        0.0000
     22 C22         5.7261   -0.5168   -1.6088 C.2     1  LIG1        0.0000
     23 C23         6.0893   -0.0938   -2.9227 C.3     1  LIG1        0.0000
     24 C24         7.2357   -0.2378   -3.7028 C.3     1  LIG1        0.0000
     25 C25         7.3393    0.2861   -4.9903 C.3     1  LIG1        0.0000
     26 N26         8.4912    0.1361   -5.7675 N.pl3   1  LIG1        1.0000
     27 O27         8.5351    0.6067   -6.8813 O.2     1  LIG1        0.0000
     28 O28         9.4525   -0.4694   -5.3228 O.2     1  LIG1       -1.0000
     29 C29         6.2921    0.9882   -5.5714 C.3     1  LIG1        0.0000
     30 C30         5.1237    1.1663   -4.8472 C.3     1  LIG1        0.0000
     31 C31         5.1031    0.6143   -3.5763 C.3     1  LIG1        0.0000
     32 S32         3.7852    0.7067   -2.5061 S.3     1  LIG1        0.0000
     33 H           1.2581   -6.5239    2.6944 H       1  LIG1        0.0000
     34 H           1.6336   -5.0603    3.3137 H       1  LIG1        0.0000
     35 H           0.0712   -5.4658    3.0663 H       1  LIG1        0.0000
     36 H           2.0091   -5.0727    0.9622 H       1  LIG1        0.0000
     37 H           0.4467   -5.4782    0.7148 H       1  LIG1        0.0000
     38 H          -1.3641   -3.3359    0.1962 H       1  LIG1        0.0000
     39 H          -2.4591   -2.4058    0.9724 H       1  LIG1        0.0000
     40 H          -2.4620   -2.4814   -0.6589 H       1  LIG1        0.0000
     41 H          -2.5342   -0.0516    0.1010 H       1  LIG1        0.0000
     42 H          -2.8626    2.1521   -0.1704 H       1  LIG1        0.0000
     43 H          -2.1038    4.4104   -0.2975 H       1  LIG1        0.0000
     44 H           0.2438    4.8681   -0.3096 H       1  LIG1        0.0000
     45 H           1.8301    3.0795   -0.2087 H       1  LIG1        0.0000
     46 H           2.4093    1.1777   -0.0848 H       1  LIG1        0.0000
     47 H           6.3461   -1.0363   -1.0208 H       1  LIG1        0.0000
     48 H           8.0148   -0.7369   -3.3236 H       1  LIG1        0.0000
     49 H           6.3792    1.3588   -6.4961 H       1  LIG1        0.0000
     50 H           4.3410    1.6643   -5.2203 H       1  LIG1        0.0000
@<TRIPOS>BOND
     1     1     2    1
     2     2     3    1
     3     3     4    1
     4     4     5    2
     5     4     6    1
     6     6     7    2
     7     7     8    1
     8     7     9    1
     9     9    10    1
    10    10    11   ar
    11    11    12   ar
    12    12    13   ar
    13    13    14   ar
    14    14    15   ar
    15    15    10   ar
    16    15    16    1
    17    16    17    1
    18    17     6    1
    19    17    18    2
    20    18    19    1
    21    19    20    2
    22    19    21    1
    23    21    22    2
    24    22    23    1
    25    23    24   ar
    26    24    25   ar
    27    25    26    1
    28    26    27   ar
    29    26    28   ar
    30    25    29   ar
    31    29    30   ar
    32    30    31   ar
    33    31    23   ar
    34    31    32    1
    35    32    21    1
    36     1    33    1
    37     1    34    1
    38     1    35    1
    39     2    36    1
    40     2    37    1
    41     8    38    1
    42     8    39    1
    43     8    40    1
    44     9    41    1
    45    11    42    1
    46    12    43    1
    47    13    44    1
    48    14    45    1
    49    16    46    1
    50    22    47    1
    51    24    48    1
    52    29    49    1
    53    30    50    1
