@<TRIPOS>MOLECULE
*****
 50 53 0 0 0
SMALL
USER_CHARGES

@<TRIPOS>ATOM
      1 C1          2.8501   -5.1948   -0.0481 C.3     1  LIG1        0.0000
      2 C2          1.3331   -5.1033   -0.0192 C.3     1  LIG1        0.0000
      3 O3          0.9452   -3.7980    0.3833 O.3     1  LIG1        0.0000
      4 C4          0.7907   -2.9313   -0.5868 C.2     1  LIG1        0.0000
      5 O5          0.9759   -3.2648   -1.7245 O.2     1  LIG1        0.0000
      6 C6          0.3955   -1.5680   -0.2855 C.2     1  LIG1        0.0000
      7 C7          1.3812   -0.7566    0.1360 C.2     1  LIG1        0.0000
      8 C8          2.7867   -1.3311    0.2000 C.3     1  LIG1        0.0000
      9 N9          1.2455    0.5952    0.5413 N.pl3   1  LIG1        0.0000
     10 C10         0.2141    1.5343    0.2529 C.3     1  LIG1        0.0000
     11 C11         0.5765    2.8768    0.3040 C.3     1  LIG1        0.0000
     12 C12        -0.3620    3.8827    0.1665 C.3     1  LIG1        0.0000
     13 C13        -1.7054    3.5658    0.0100 C.3     1  LIG1        0.0000
     14 C14        -2.0872    2.2426   -0.1169 C.3     1  LIG1        0.0000
     15 C15        -1.1303    1.2309   -0.0581 C.3     1  LIG1        0.0000
     16 N16        -1.6962   -0.0179   -0.3429 N.pl3   1  LIG1        0.0000
     17 C17        -1.0348   -1.2591   -0.4676 C.2     1  LIG1        0.0000
     18 N18        -1.7731   -2.2265   -0.8115 N.am    1  LIG1        0.0000
     19 C19        -3.1171   -2.1163   -1.0534 C.2     1  LIG1        0.0000
     20 O20        -3.9024   -2.2732   -0.1597 O.2     1  LIG1        0.0000
     21 C21        -3.5906   -1.8100   -2.3891 C.2     1  LIG1        0.0000
     22 C22        -2.9882   -2.1376   -3.5601 C.2     1  LIG1        0.0000
     23 C23        -3.6792   -1.7105   -4.7336 C.3     1  LIG1        0.0000
     24 C24        -3.4304   -1.8302   -6.1000 C.3     1  LIG1        0.0000
     25 C25        -4.2863   -1.3082   -7.0684 C.3     1  LIG1        0.0000
     26 N26        -4.0313   -1.4338   -8.4369 N.pl3   1  LIG1        1.0000
     27 O27        -4.8042   -0.9659   -9.2418 O.2     1  LIG1        0.0000
     28 O28        -3.0295   -2.0153   -8.8199 O.2     1  LIG1       -1.0000
     29 C29        -5.4474   -0.6326   -6.7183 C.3     1  LIG1        0.0000
     30 C30        -5.7522   -0.4794   -5.3748 C.3     1  LIG1        0.0000
     31 C31        -4.8495   -1.0277   -4.4777 C.3     1  LIG1        0.0000
     32 S32        -5.0105   -0.9625   -2.7864 S.3     1  LIG1        0.0000
     33 H           3.1233   -6.1141   -0.3315 H       1  LIG1        0.0000
     34 H           3.2122   -4.5248   -0.6961 H       1  LIG1        0.0000
     35 H           3.2129   -5.0058    0.8644 H       1  LIG1        0.0000
     36 H           0.9704   -5.2924   -0.9317 H       1  LIG1        0.0000
     37 H           0.9711   -5.7734    0.6288 H       1  LIG1        0.0000
     38 H           2.7717   -2.2834   -0.1048 H       1  LIG1        0.0000
     39 H           3.3911   -0.8004   -0.3941 H       1  LIG1        0.0000
     40 H           3.1220   -1.2876    1.1411 H       1  LIG1        0.0000
     41 H           1.9861    0.9420    1.1168 H       1  LIG1        0.0000
     42 H           1.5366    3.1193    0.4431 H       1  LIG1        0.0000
     43 H          -0.0732    4.8400    0.1798 H       1  LIG1        0.0000
     44 H          -2.3934    4.2913   -0.0108 H       1  LIG1        0.0000
     45 H          -3.0508    2.0114   -0.2509 H       1  LIG1        0.0000
     46 H          -2.6875   -0.0323   -0.4736 H       1  LIG1        0.0000
     47 H          -2.1247   -2.6406   -3.5979 H       1  LIG1        0.0000
     48 H          -2.6048   -2.3098   -6.3974 H       1  LIG1        0.0000
     49 H          -6.0532   -0.2630   -7.4229 H       1  LIG1        0.0000
     50 H          -6.5759   -0.0009   -5.0706 H       1  LIG1        0.0000
@<TRIPOS>BOND
     1     1     2    1
     2     2     3    1
     3     3     4    1
     4     4     5    2
     5     4     6    1
     6     6     7    2
     7     7     8    1
     8     7     9    1
     9     9    10    1
    10    10    11   ar
    11    11    12   ar
    12    12    13   ar
    13    13    14   ar
    14    14    15   ar
    15    15    10   ar
    16    15    16    1
    17    16    17    1
    18    17     6    1
    19    17    18    2
    20    18    19    1
    21    19    20    2
    22    19    21    1
    23    21    22    2
    24    22    23    1
    25    23    24   ar
    26    24    25   ar
    27    25    26    1
    28    26    27   ar
    29    26    28   ar
    30    25    29   ar
    31    29    30   ar
    32    30    31   ar
    33    31    23   ar
    34    31    32    1
    35    32    21    1
    36     1    33    1
    37     1    34    1
    38     1    35    1
    39     2    36    1
    40     2    37    1
    41     8    38    1
    42     8    39    1
    43     8    40    1
    44     9    41    1
    45    11    42    1
    46    12    43    1
    47    13    44    1
    48    14    45    1
    49    16    46    1
    50    22    47    1
    51    24    48    1
    52    29    49    1
    53    30    50    1
