@<TRIPOS>MOLECULE

  58   63
SMALL
USER_CHARGES
@<TRIPOS>ATOM
   1 C1          -2.2913     6.2384    -0.2285 C.3          1    LIG   0.0000
   2 C2          -1.4270     6.0853     1.0124 C.3          1    LIG   0.0000
   3 C3          -2.2922     6.2308     2.2536 C.3          1    LIG   0.0000
   4 C4          -0.3510     7.1589     1.0161 C.3          1    LIG   0.0000
   5 C5          -0.7734     4.7128     1.0084 C.ar         1    LIG   0.0000
   6 C6          -1.5724     3.5743     1.0047 C.ar         1    LIG   0.0000
   7 C7          -0.9682     2.3213     1.0019 C.ar         1    LIG   0.0000
   8 C8           0.4189     2.2184     1.0018 C.ar         1    LIG   0.0000
   9 O9           1.0000     1.0000     1.0000 O.3          1    LIG   0.0000
  10 C10          2.3499     1.0000     1.0000 C.2          1    LIG   0.0000
  11 N11          3.0469     1.0017    -0.1808 N.2          1    LIG   0.0000
  12 C12          4.3680     1.0015    -0.2015 C.2          1    LIG   0.0000
  13 C13          5.0252     1.0033    -1.4613 C.2          1    LIG   0.0000
  14 C14          6.3953     1.0038    -1.5153 C.2          1    LIG   0.0000
  15 C15          7.1498     1.0021    -0.3118 C.2          1    LIG   0.0000
  16 C16          6.4771     1.0006     0.8820 C.2          1    LIG   0.0000
  17 N17          5.1049     1.0002     0.9574 N.pl3        1    LIG   0.0000
  18 C18          4.4442     0.9986     2.1628 C.2          1    LIG   0.0000
  19 O19          5.0361     0.9971     3.2323 O.2          1    LIG   0.0000
  20 C20          3.0236     0.9983     2.1940 C.2          1    LIG   0.0000
  21 C21          2.3034     0.9965     3.4534 C.2          1    LIG   0.0000
  22 C22          2.4722     0.0057     4.3086 C.2          1    LIG   0.0000
  23 S23          3.5141    -1.3646     4.1444 S.3          1    LIG   0.0000
  24 C24          3.1122    -2.1007     5.6584 C.2          1    LIG   0.0000
  25 N25          3.4673    -3.1613     6.3386 N.2          1    LIG   0.0000
  26 C26          2.7762    -3.1111     7.5093 C.ar         1    LIG   0.0000
  27 C27          2.7997    -4.0008     8.5774 C.ar         1    LIG   0.0000
  28 C28          2.0131    -3.7615     9.6987 C.ar         1    LIG   0.0000
  29 C29          1.2108    -2.6258     9.7267 C.ar         1    LIG   0.0000
  30 C30          1.2146    -1.7596     8.6368 C.ar         1    LIG   0.0000
  31 C31          1.9933    -1.9757     7.5028 C.ar         1    LIG   0.0000
  32 N32          2.2196    -1.3392     6.3131 N.pl3        1    LIG   0.0000
  33 C33          1.8497    -0.1737     5.6037 C.2          1    LIG   0.0000
  34 O34          1.0503     0.6357     6.0481 O.2          1    LIG   0.0000
  35 C35          1.2181     3.3567     1.0050 C.ar         1    LIG   0.0000
  36 C36          0.6138     4.6096     1.0080 C.ar         1    LIG   0.0000
  37 H           -2.7213     7.1413    -0.2259 H            1    LIG   0.0000
  38 H           -1.7221     6.1427    -1.0451 H            1    LIG   0.0000
  39 H           -2.9992     5.5321    -0.2309 H            1    LIG   0.0000
  40 H           -2.7222     7.1337     2.2562 H            1    LIG   0.0000
  41 H           -3.0001     5.5245     2.2512 H            1    LIG   0.0000
  42 H           -1.7235     6.1301     3.0700 H            1    LIG   0.0000
  43 H           -0.7810     8.0617     1.0187 H            1    LIG   0.0000
  44 H            0.2176     7.0581     1.8324 H            1    LIG   0.0000
  45 H            0.2182     7.0631     0.1995 H            1    LIG   0.0000
  46 H           -2.5691     3.6555     1.0040 H            1    LIG   0.0000
  47 H           -1.5310     1.4947     1.0000 H            1    LIG   0.0000
  48 H            4.4901     1.0042    -2.3060 H            1    LIG   0.0000
  49 H            6.8620     1.0053    -2.3996 H            1    LIG   0.0000
  50 H            8.1496     1.0021    -0.3353 H            1    LIG   0.0000
  51 H            7.0051     0.9997     1.7312 H            1    LIG   0.0000
  52 H            1.6792     1.7461     3.6735 H            1    LIG   0.0000
  53 H            3.3823    -4.8127     8.5393 H            1    LIG   0.0000
  54 H            2.0240    -4.3953    10.4720 H            1    LIG   0.0000
  55 H            0.6364    -2.4332    10.5223 H            1    LIG   0.0000
  56 H            0.6328    -0.9469     8.6697 H            1    LIG   0.0000
  57 H            2.2148     3.2754     1.0050 H            1    LIG   0.0000
  58 H            1.1766     5.4362     1.0100 H            1    LIG   0.0000
@<TRIPOS>BOND
   1        1        2 1
   2        2        3 1
   3        2        4 1
   4        2        5 1
   5        5        6 ar
   6        6        7 ar
   7        7        8 ar
   8        8        9 1
   9        9       10 1
  10       10       11 1
  11       11       12 2
  12       12       13 1
  13       13       14 2
  14       14       15 1
  15       15       16 2
  16       16       17 1
  17       17       12 1
  18       17       18 1
  19       18       19 2
  20       18       20 1
  21       20       10 2
  22       20       21 1
  23       21       22 2
  24       22       23 1
  25       23       24 1
  26       24       25 2
  27       25       26 1
  28       26       27 ar
  29       27       28 ar
  30       28       29 ar
  31       29       30 ar
  32       30       31 ar
  33       31       26 ar
  34       31       32 1
  35       32       24 1
  36       32       33 1
  37       33       22 1
  38       33       34 2
  39        8       35 ar
  40       35       36 ar
  41       36        5 ar
  42        1       37 1
  43        1       38 1
  44        1       39 1
  45        3       40 1
  46        3       41 1
  47        3       42 1
  48        4       43 1
  49        4       44 1
  50        4       45 1
  51        6       46 1
  52        7       47 1
  53       13       48 1
  54       14       49 1
  55       15       50 1
  56       16       51 1
  57       21       52 1
  58       27       53 1
  59       28       54 1
  60       29       55 1
  61       30       56 1
  62       35       57 1
  63       36       58 1

@<TRIPOS>MOLECULE

  58   63
SMALL
USER_CHARGES
@<TRIPOS>ATOM
   1 C1          -2.2913     6.2384    -0.2285 C.3          1    LIG   0.0000
   2 C2          -1.4270     6.0853     1.0124 C.3          1    LIG   0.0000
   3 C3          -2.2922     6.2308     2.2536 C.3          1    LIG   0.0000
   4 C4          -0.3510     7.1589     1.0161 C.3          1    LIG   0.0000
   5 C5          -0.7734     4.7128     1.0084 C.ar         1    LIG   0.0000
   6 C6          -1.5724     3.5743     1.0047 C.ar         1    LIG   0.0000
   7 C7          -0.9682     2.3213     1.0019 C.ar         1    LIG   0.0000
   8 C8           0.4189     2.2184     1.0018 C.ar         1    LIG   0.0000
   9 O9           1.0000     1.0000     1.0000 O.3          1    LIG   0.0000
  10 C10          2.3499     1.0000     1.0000 C.2          1    LIG   0.0000
  11 N11          3.0469     1.0017    -0.1808 N.2          1    LIG   0.0000
  12 C12          4.3680     1.0015    -0.2015 C.2          1    LIG   0.0000
  13 C13          5.0252     1.0033    -1.4613 C.2          1    LIG   0.0000
  14 C14          6.3953     1.0038    -1.5153 C.2          1    LIG   0.0000
  15 C15          7.1498     1.0021    -0.3118 C.2          1    LIG   0.0000
  16 C16          6.4771     1.0006     0.8820 C.2          1    LIG   0.0000
  17 N17          5.1049     1.0002     0.9574 N.pl3        1    LIG   0.0000
  18 C18          4.4442     0.9986     2.1628 C.2          1    LIG   0.0000
  19 O19          5.0361     0.9971     3.2323 O.2          1    LIG   0.0000
  20 C20          3.0236     0.9983     2.1940 C.2          1    LIG   0.0000
  21 C21          2.3034     0.9965     3.4534 C.2          1    LIG   0.0000
  22 C22          2.4718     1.9852     4.3112 C.2          1    LIG   0.0000
  23 S23          3.4712     3.3844     4.1266 S.3          1    LIG   0.0000
  24 C24          3.0962     4.0983     5.6580 C.2          1    LIG   0.0000
  25 N25          3.4059     5.1871     6.3153 N.2          1    LIG   0.0000
  26 C26          2.7004     5.1432     7.4775 C.ar         1    LIG   0.0000
  27 C27          2.6739     6.0632     8.5196 C.ar         1    LIG   0.0000
  28 C28          1.8709     5.8316     9.6309 C.ar         1    LIG   0.0000
  29 C29          1.1046     4.6719     9.6763 C.ar         1    LIG   0.0000
  30 C30          1.1593     3.7748     8.6130 C.ar         1    LIG   0.0000
  31 C31          1.9541     3.9834     7.4888 C.ar         1    LIG   0.0000
  32 N32          2.2169     3.3260     6.3182 N.pl3        1    LIG   0.0000
  33 C33          1.8492     2.1610     5.6068 C.2          1    LIG   0.0000
  34 O34          1.0581     1.3450     6.0535 O.2          1    LIG   0.0000
  35 C35          1.2181     3.3567     1.0050 C.ar         1    LIG   0.0000
  36 C36          0.6138     4.6096     1.0080 C.ar         1    LIG   0.0000
  37 H           -2.7213     7.1413    -0.2259 H            1    LIG   0.0000
  38 H           -1.7221     6.1427    -1.0451 H            1    LIG   0.0000
  39 H           -2.9992     5.5321    -0.2309 H            1    LIG   0.0000
  40 H           -2.7222     7.1337     2.2562 H            1    LIG   0.0000
  41 H           -3.0001     5.5245     2.2512 H            1    LIG   0.0000
  42 H           -1.7235     6.1301     3.0700 H            1    LIG   0.0000
  43 H           -0.7810     8.0617     1.0187 H            1    LIG   0.0000
  44 H            0.2176     7.0581     1.8324 H            1    LIG   0.0000
  45 H            0.2182     7.0631     0.1995 H            1    LIG   0.0000
  46 H           -2.5691     3.6555     1.0040 H            1    LIG   0.0000
  47 H           -1.5310     1.4947     1.0000 H            1    LIG   0.0000
  48 H            4.4901     1.0042    -2.3060 H            1    LIG   0.0000
  49 H            6.8620     1.0053    -2.3996 H            1    LIG   0.0000
  50 H            8.1496     1.0021    -0.3353 H            1    LIG   0.0000
  51 H            7.0051     0.9997     1.7312 H            1    LIG   0.0000
  52 H            1.6795     0.2461     3.6716 H            1    LIG   0.0000
  53 H            3.2323     6.8913     8.4700 H            1    LIG   0.0000
  54 H            1.8448     6.4880    10.3848 H            1    LIG   0.0000
  55 H            0.5198     4.4840    10.4654 H            1    LIG   0.0000
  56 H            0.6036     2.9447     8.6585 H            1    LIG   0.0000
  57 H            2.2148     3.2754     1.0050 H            1    LIG   0.0000
  58 H            1.1766     5.4362     1.0100 H            1    LIG   0.0000
@<TRIPOS>BOND
   1        1        2 1
   2        2        3 1
   3        2        4 1
   4        2        5 1
   5        5        6 ar
   6        6        7 ar
   7        7        8 ar
   8        8        9 1
   9        9       10 1
  10       10       11 1
  11       11       12 2
  12       12       13 1
  13       13       14 2
  14       14       15 1
  15       15       16 2
  16       16       17 1
  17       17       12 1
  18       17       18 1
  19       18       19 2
  20       18       20 1
  21       20       10 2
  22       20       21 1
  23       21       22 2
  24       22       23 1
  25       23       24 1
  26       24       25 2
  27       25       26 1
  28       26       27 ar
  29       27       28 ar
  30       28       29 ar
  31       29       30 ar
  32       30       31 ar
  33       31       26 ar
  34       31       32 1
  35       32       24 1
  36       32       33 1
  37       33       22 1
  38       33       34 2
  39        8       35 ar
  40       35       36 ar
  41       36        5 ar
  42        1       37 1
  43        1       38 1
  44        1       39 1
  45        3       40 1
  46        3       41 1
  47        3       42 1
  48        4       43 1
  49        4       44 1
  50        4       45 1
  51        6       46 1
  52        7       47 1
  53       13       48 1
  54       14       49 1
  55       15       50 1
  56       16       51 1
  57       21       52 1
  58       27       53 1
  59       28       54 1
  60       29       55 1
  61       30       56 1
  62       35       57 1
  63       36       58 1

@<TRIPOS>MOLECULE

  58   63
SMALL
USER_CHARGES
@<TRIPOS>ATOM
   1 C1          -0.9984     6.8470     2.2560 C.3          1    LIG   0.0000
   2 C2          -1.4270     6.0853     1.0124 C.3          1    LIG   0.0000
   3 C3          -0.9975     6.8546    -0.2262 C.3          1    LIG   0.0000
   4 C4          -2.9387     5.9266     1.0114 C.3          1    LIG   0.0000
   5 C5          -0.7734     4.7128     1.0084 C.ar         1    LIG   0.0000
   6 C6          -1.5724     3.5743     1.0047 C.ar         1    LIG   0.0000
   7 C7          -0.9682     2.3213     1.0019 C.ar         1    LIG   0.0000
   8 C8           0.4189     2.2184     1.0018 C.ar         1    LIG   0.0000
   9 O9           1.0000     1.0000     1.0000 O.3          1    LIG   0.0000
  10 C10          2.3499     1.0000     1.0000 C.2          1    LIG   0.0000
  11 N11          3.0469     1.5919    -0.0218 N.2          1    LIG   0.0000
  12 C12          4.3680     1.6020    -0.0398 C.2          1    LIG   0.0000
  13 C13          5.0252     2.2335    -1.1299 C.2          1    LIG   0.0000
  14 C14          6.3953     2.2609    -1.1764 C.2          1    LIG   0.0000
  15 C15          7.1498     1.6577    -0.1350 C.2          1    LIG   0.0000
  16 C16          6.4771     1.0595     0.8981 C.2          1    LIG   0.0000
  17 N17          5.1049     1.0214     0.9632 N.pl3        1    LIG   0.0000
  18 C18          4.4442     0.4174     2.0063 C.2          1    LIG   0.0000
  19 O19          5.0361    -0.1186     2.9318 O.2          1    LIG   0.0000
  20 C20          3.0236     0.4015     2.0332 C.2          1    LIG   0.0000
  21 C21          2.3034    -0.2297     3.1230 C.2          1    LIG   0.0000
  22 C22          2.4718     0.1976     4.3602 C.2          1    LIG   0.0000
  23 S23          3.4712     1.5016     4.8999 S.3          1    LIG   0.0000
  24 C24          3.0962     1.3542     6.5831 C.2          1    LIG   0.0000
  25 N25          3.4059     1.9685     7.6967 N.2          1    LIG   0.0000
  26 C26          2.7004     1.3494     8.6813 C.ar         1    LIG   0.0000
  27 C27          2.6739     1.6251    10.0438 C.ar         1    LIG   0.0000
  28 C28          1.8709     0.8689    10.8904 C.ar         1    LIG   0.0000
  29 C29          1.1046    -0.1582    10.3498 C.ar         1    LIG   0.0000
  30 C30          1.1593    -0.4034     8.9804 C.ar         1    LIG   0.0000
  31 C31          1.9541     0.3393     8.1112 C.ar         1    LIG   0.0000
  32 N32          2.2169     0.3553     6.7687 N.pl3        1    LIG   0.0000
  33 C33          1.8492    -0.2979     5.5701 C.2          1    LIG   0.0000
  34 O34          1.0581    -1.2280     5.5490 O.2          1    LIG   0.0000
  35 C35          1.2181     3.3567     1.0050 C.ar         1    LIG   0.0000
  36 C36          0.6138     4.6096     1.0080 C.ar         1    LIG   0.0000
  37 H           -1.4283     7.7499     2.2586 H            1    LIG   0.0000
  38 H           -1.2809     6.3409     3.0708 H            1    LIG   0.0000
  39 H           -0.0038     6.9514     2.2566 H            1    LIG   0.0000
  40 H           -1.4275     7.7574    -0.2236 H            1    LIG   0.0000
  41 H           -0.0030     6.9590    -0.2255 H            1    LIG   0.0000
  42 H           -1.2795     6.3534    -1.0443 H            1    LIG   0.0000
  43 H           -3.3687     6.8294     1.0140 H            1    LIG   0.0000
  44 H           -3.2207     5.4254     0.1933 H            1    LIG   0.0000
  45 H           -3.2213     5.4204     1.8263 H            1    LIG   0.0000
  46 H           -2.5691     3.6555     1.0040 H            1    LIG   0.0000
  47 H           -1.5310     1.4947     1.0000 H            1    LIG   0.0000
  48 H            4.4901     2.6566    -1.8610 H            1    LIG   0.0000
  49 H            6.8620     2.7044    -1.9415 H            1    LIG   0.0000
  50 H            8.1496     1.6694    -0.1554 H            1    LIG   0.0000
  51 H            7.0051     0.6342     1.6331 H            1    LIG   0.0000
  52 H            1.6795    -0.9887     2.9367 H            1    LIG   0.0000
  53 H            3.2323     2.3671    10.4149 H            1    LIG   0.0000
  54 H            1.8448     1.0603    11.8715 H            1    LIG   0.0000
  55 H            0.5198    -0.7154    10.9393 H            1    LIG   0.0000
  56 H            0.6036    -1.1451     8.6048 H            1    LIG   0.0000
  57 H            2.2148     3.2754     1.0050 H            1    LIG   0.0000
  58 H            1.1766     5.4362     1.0100 H            1    LIG   0.0000
@<TRIPOS>BOND
   1        1        2 1
   2        2        3 1
   3        2        4 1
   4        2        5 1
   5        5        6 ar
   6        6        7 ar
   7        7        8 ar
   8        8        9 1
   9        9       10 1
  10       10       11 1
  11       11       12 2
  12       12       13 1
  13       13       14 2
  14       14       15 1
  15       15       16 2
  16       16       17 1
  17       17       12 1
  18       17       18 1
  19       18       19 2
  20       18       20 1
  21       20       10 2
  22       20       21 1
  23       21       22 2
  24       22       23 1
  25       23       24 1
  26       24       25 2
  27       25       26 1
  28       26       27 ar
  29       27       28 ar
  30       28       29 ar
  31       29       30 ar
  32       30       31 ar
  33       31       26 ar
  34       31       32 1
  35       32       24 1
  36       32       33 1
  37       33       22 1
  38       33       34 2
  39        8       35 ar
  40       35       36 ar
  41       36        5 ar
  42        1       37 1
  43        1       38 1
  44        1       39 1
  45        3       40 1
  46        3       41 1
  47        3       42 1
  48        4       43 1
  49        4       44 1
  50        4       45 1
  51        6       46 1
  52        7       47 1
  53       13       48 1
  54       14       49 1
  55       15       50 1
  56       16       51 1
  57       21       52 1
  58       27       53 1
  59       28       54 1
  60       29       55 1
  61       30       56 1
  62       35       57 1
  63       36       58 1

@<TRIPOS>MOLECULE

  58   63
SMALL
USER_CHARGES
@<TRIPOS>ATOM
   1 C1          -2.2913     6.2384    -0.2285 C.3          1    LIG   0.0000
   2 C2          -1.4270     6.0853     1.0124 C.3          1    LIG   0.0000
   3 C3          -2.2922     6.2308     2.2536 C.3          1    LIG   0.0000
   4 C4          -0.3510     7.1589     1.0161 C.3          1    LIG   0.0000
   5 C5          -0.7734     4.7128     1.0084 C.ar         1    LIG   0.0000
   6 C6          -1.5724     3.5743     1.0047 C.ar         1    LIG   0.0000
   7 C7          -0.9682     2.3213     1.0019 C.ar         1    LIG   0.0000
   8 C8           0.4189     2.2184     1.0018 C.ar         1    LIG   0.0000
   9 O9           1.0000     1.0000     1.0000 O.3          1    LIG   0.0000
  10 C10          2.3499     1.0000     1.0000 C.2          1    LIG   0.0000
  11 N11          3.0469     0.4111    -0.0235 N.2          1    LIG   0.0000
  12 C12          4.3680     0.4005    -0.0413 C.2          1    LIG   0.0000
  13 C13          5.0252    -0.2278    -1.1331 C.2          1    LIG   0.0000
  14 C14          6.3953    -0.2544    -1.1802 C.2          1    LIG   0.0000
  15 C15          7.1498     0.3459    -0.1371 C.2          1    LIG   0.0000
  16 C16          6.4771     0.9415     0.8975 C.2          1    LIG   0.0000
  17 N17          5.1049     0.9788     0.9630 N.pl3        1    LIG   0.0000
  18 C18          4.4442     1.5802     2.0077 C.2          1    LIG   0.0000
  19 O19          5.0361     2.1136     2.9346 O.2          1    LIG   0.0000
  20 C20          3.0236     1.5955     2.0349 C.2          1    LIG   0.0000
  21 C21          2.3034     2.2237     3.1265 C.2          1    LIG   0.0000
  22 C22          1.9762     1.5190     4.1931 C.2          1    LIG   0.0000
  23 S23          2.3273    -0.1448     4.5077 S.3          1    LIG   0.0000
  24 C24          1.5600    -0.2190     6.0573 C.2          1    LIG   0.0000
  25 N25          1.3799    -1.1072     7.0018 N.2          1    LIG   0.0000
  26 C26          0.7136    -0.4691     8.0016 C.ar         1    LIG   0.0000
  27 C27          0.2874    -0.9696     9.2268 C.ar         1    LIG   0.0000
  28 C28         -0.3799    -0.1408    10.1218 C.ar         1    LIG   0.0000
  29 C29         -0.6098     1.1843     9.7673 C.ar         1    LIG   0.0000
  30 C30         -0.1681     1.6473     8.5309 C.ar         1    LIG   0.0000
  31 C31          0.5030     0.8386     7.6173 C.ar         1    LIG   0.0000
  32 N32          1.0507     0.9839     6.3720 N.pl3        1    LIG   0.0000
  33 C33          1.2646     1.9619     5.3740 C.2          1    LIG   0.0000
  34 O34          0.8720     3.1124     5.4916 O.2          1    LIG   0.0000
  35 C35          1.2181     3.3567     1.0050 C.ar         1    LIG   0.0000
  36 C36          0.6138     4.6096     1.0080 C.ar         1    LIG   0.0000
  37 H           -2.7213     7.1413    -0.2259 H            1    LIG   0.0000
  38 H           -1.7221     6.1427    -1.0451 H            1    LIG   0.0000
  39 H           -2.9992     5.5321    -0.2309 H            1    LIG   0.0000
  40 H           -2.7222     7.1337     2.2562 H            1    LIG   0.0000
  41 H           -3.0001     5.5245     2.2512 H            1    LIG   0.0000
  42 H           -1.7235     6.1301     3.0700 H            1    LIG   0.0000
  43 H           -0.7810     8.0617     1.0187 H            1    LIG   0.0000
  44 H            0.2176     7.0581     1.8324 H            1    LIG   0.0000
  45 H            0.2182     7.0631     0.1995 H            1    LIG   0.0000
  46 H           -2.5691     3.6555     1.0040 H            1    LIG   0.0000
  47 H           -1.5310     1.4947     1.0000 H            1    LIG   0.0000
  48 H            4.4901    -0.6494    -1.8652 H            1    LIG   0.0000
  49 H            6.8620    -0.6952    -1.9468 H            1    LIG   0.0000
  50 H            8.1496     0.3341    -0.1574 H            1    LIG   0.0000
  51 H            7.0051     1.3654     1.6334 H            1    LIG   0.0000
  52 H            2.0551     3.1908     3.0706 H            1    LIG   0.0000
  53 H            0.4608    -1.9254     9.4642 H            1    LIG   0.0000
  54 H           -0.6895    -0.4916    11.0056 H            1    LIG   0.0000
  55 H           -1.0880     1.7988    10.3948 H            1    LIG   0.0000
  56 H           -0.3402     2.6020     8.2884 H            1    LIG   0.0000
  57 H            2.2148     3.2754     1.0050 H            1    LIG   0.0000
  58 H            1.1766     5.4362     1.0100 H            1    LIG   0.0000
@<TRIPOS>BOND
   1        1        2 1
   2        2        3 1
   3        2        4 1
   4        2        5 1
   5        5        6 ar
   6        6        7 ar
   7        7        8 ar
   8        8        9 1
   9        9       10 1
  10       10       11 1
  11       11       12 2
  12       12       13 1
  13       13       14 2
  14       14       15 1
  15       15       16 2
  16       16       17 1
  17       17       12 1
  18       17       18 1
  19       18       19 2
  20       18       20 1
  21       20       10 2
  22       20       21 1
  23       21       22 2
  24       22       23 1
  25       23       24 1
  26       24       25 2
  27       25       26 1
  28       26       27 ar
  29       27       28 ar
  30       28       29 ar
  31       29       30 ar
  32       30       31 ar
  33       31       26 ar
  34       31       32 1
  35       32       24 1
  36       32       33 1
  37       33       22 1
  38       33       34 2
  39        8       35 ar
  40       35       36 ar
  41       36        5 ar
  42        1       37 1
  43        1       38 1
  44        1       39 1
  45        3       40 1
  46        3       41 1
  47        3       42 1
  48        4       43 1
  49        4       44 1
  50        4       45 1
  51        6       46 1
  52        7       47 1
  53       13       48 1
  54       14       49 1
  55       15       50 1
  56       16       51 1
  57       21       52 1
  58       27       53 1
  59       28       54 1
  60       29       55 1
  61       30       56 1
  62       35       57 1
  63       36       58 1

@<TRIPOS>MOLECULE

  58   63
SMALL
USER_CHARGES
@<TRIPOS>ATOM
   1 C1          -0.9984     6.8470     2.2560 C.3          1    LIG   0.0000
   2 C2          -1.4270     6.0853     1.0124 C.3          1    LIG   0.0000
   3 C3          -0.9975     6.8546    -0.2262 C.3          1    LIG   0.0000
   4 C4          -2.9387     5.9266     1.0114 C.3          1    LIG   0.0000
   5 C5          -0.7734     4.7128     1.0084 C.ar         1    LIG   0.0000
   6 C6          -1.5724     3.5743     1.0047 C.ar         1    LIG   0.0000
   7 C7          -0.9682     2.3213     1.0019 C.ar         1    LIG   0.0000
   8 C8           0.4189     2.2184     1.0018 C.ar         1    LIG   0.0000
   9 O9           1.0000     1.0000     1.0000 O.3          1    LIG   0.0000
  10 C10          2.3499     1.0000     1.0000 C.2          1    LIG   0.0000
  11 N11          3.0469     0.4111    -0.0235 N.2          1    LIG   0.0000
  12 C12          4.3680     0.4005    -0.0413 C.2          1    LIG   0.0000
  13 C13          5.0252    -0.2278    -1.1331 C.2          1    LIG   0.0000
  14 C14          6.3953    -0.2544    -1.1802 C.2          1    LIG   0.0000
  15 C15          7.1498     0.3459    -0.1371 C.2          1    LIG   0.0000
  16 C16          6.4771     0.9415     0.8975 C.2          1    LIG   0.0000
  17 N17          5.1049     0.9788     0.9630 N.pl3        1    LIG   0.0000
  18 C18          4.4442     1.5802     2.0077 C.2          1    LIG   0.0000
  19 O19          5.0361     2.1136     2.9346 O.2          1    LIG   0.0000
  20 C20          3.0236     1.5955     2.0349 C.2          1    LIG   0.0000
  21 C21          2.3034     2.2237     3.1265 C.2          1    LIG   0.0000
  22 C22          2.4718     3.5088     3.3750 C.2          1    LIG   0.0000
  23 S23          3.4712     4.6282     2.5155 S.3          1    LIG   0.0000
  24 C24          3.0962     6.0122     3.4848 C.2          1    LIG   0.0000
  25 N25          3.4059     7.2838     3.5096 N.2          1    LIG   0.0000
  26 C26          2.7004     7.8269     4.5381 C.ar         1    LIG   0.0000
  27 C27          2.6739     9.1447     4.9806 C.ar         1    LIG   0.0000
  28 C28          1.8709     9.4997     6.0587 C.ar         1    LIG   0.0000
  29 C29          1.1046     8.5181     6.6779 C.ar         1    LIG   0.0000
  30 C30          1.1593     7.2096     6.2056 C.ar         1    LIG   0.0000
  31 C31          1.9541     6.8281     5.1278 C.ar         1    LIG   0.0000
  32 N32          2.2169     5.6734     4.4427 N.pl3        1    LIG   0.0000
  33 C33          1.8492     4.3088     4.4091 C.2          1    LIG   0.0000
  34 O34          1.0581     3.8255     5.2040 O.2          1    LIG   0.0000
  35 C35          1.2181     3.3567     1.0050 C.ar         1    LIG   0.0000
  36 C36          0.6138     4.6096     1.0080 C.ar         1    LIG   0.0000
  37 H           -1.4283     7.7499     2.2586 H            1    LIG   0.0000
  38 H           -1.2809     6.3409     3.0708 H            1    LIG   0.0000
  39 H           -0.0038     6.9514     2.2566 H            1    LIG   0.0000
  40 H           -1.4275     7.7574    -0.2236 H            1    LIG   0.0000
  41 H           -0.0030     6.9590    -0.2255 H            1    LIG   0.0000
  42 H           -1.2795     6.3534    -1.0443 H            1    LIG   0.0000
  43 H           -3.3687     6.8294     1.0140 H            1    LIG   0.0000
  44 H           -3.2207     5.4254     0.1933 H            1    LIG   0.0000
  45 H           -3.2213     5.4204     1.8263 H            1    LIG   0.0000
  46 H           -2.5691     3.6555     1.0040 H            1    LIG   0.0000
  47 H           -1.5310     1.4947     1.0000 H            1    LIG   0.0000
  48 H            4.4901    -0.6494    -1.8652 H            1    LIG   0.0000
  49 H            6.8620    -0.6952    -1.9468 H            1    LIG   0.0000
  50 H            8.1496     0.3341    -0.1574 H            1    LIG   0.0000
  51 H            7.0051     1.3654     1.6334 H            1    LIG   0.0000
  52 H            1.6795     1.6829     3.6906 H            1    LIG   0.0000
  53 H            3.2323     9.8370     4.5235 H            1    LIG   0.0000
  54 H            1.8448    10.4452     6.3835 H            1    LIG   0.0000
  55 H            0.5198     8.7499     7.4552 H            1    LIG   0.0000
  56 H            0.6036     6.5134     6.6601 H            1    LIG   0.0000
  57 H            2.2148     3.2754     1.0050 H            1    LIG   0.0000
  58 H            1.1766     5.4362     1.0100 H            1    LIG   0.0000
@<TRIPOS>BOND
   1        1        2 1
   2        2        3 1
   3        2        4 1
   4        2        5 1
   5        5        6 ar
   6        6        7 ar
   7        7        8 ar
   8        8        9 1
   9        9       10 1
  10       10       11 1
  11       11       12 2
  12       12       13 1
  13       13       14 2
  14       14       15 1
  15       15       16 2
  16       16       17 1
  17       17       12 1
  18       17       18 1
  19       18       19 2
  20       18       20 1
  21       20       10 2
  22       20       21 1
  23       21       22 2
  24       22       23 1
  25       23       24 1
  26       24       25 2
  27       25       26 1
  28       26       27 ar
  29       27       28 ar
  30       28       29 ar
  31       29       30 ar
  32       30       31 ar
  33       31       26 ar
  34       31       32 1
  35       32       24 1
  36       32       33 1
  37       33       22 1
  38       33       34 2
  39        8       35 ar
  40       35       36 ar
  41       36        5 ar
  42        1       37 1
  43        1       38 1
  44        1       39 1
  45        3       40 1
  46        3       41 1
  47        3       42 1
  48        4       43 1
  49        4       44 1
  50        4       45 1
  51        6       46 1
  52        7       47 1
  53       13       48 1
  54       14       49 1
  55       15       50 1
  56       16       51 1
  57       21       52 1
  58       27       53 1
  59       28       54 1
  60       29       55 1
  61       30       56 1
  62       35       57 1
  63       36       58 1

@<TRIPOS>MOLECULE

  58   63
SMALL
USER_CHARGES
@<TRIPOS>ATOM
   1 C1          -2.2913     6.2384    -0.2285 C.3          1    LIG   0.0000
   2 C2          -1.4270     6.0853     1.0124 C.3          1    LIG   0.0000
   3 C3          -2.2922     6.2308     2.2536 C.3          1    LIG   0.0000
   4 C4          -0.3510     7.1589     1.0161 C.3          1    LIG   0.0000
   5 C5          -0.7734     4.7128     1.0084 C.ar         1    LIG   0.0000
   6 C6          -1.5724     3.5743     1.0047 C.ar         1    LIG   0.0000
   7 C7          -0.9682     2.3213     1.0019 C.ar         1    LIG   0.0000
   8 C8           0.4189     2.2184     1.0018 C.ar         1    LIG   0.0000
   9 O9           1.0000     1.0000     1.0000 O.3          1    LIG   0.0000
  10 C10          2.3499     1.0000     1.0000 C.2          1    LIG   0.0000
  11 N11          3.0469     0.9983     2.1808 N.2          1    LIG   0.0000
  12 C12          4.3680     0.9985     2.2015 C.2          1    LIG   0.0000
  13 C13          5.0252     0.9967     3.4613 C.2          1    LIG   0.0000
  14 C14          6.3953     0.9962     3.5153 C.2          1    LIG   0.0000
  15 C15          7.1498     0.9979     2.3118 C.2          1    LIG   0.0000
  16 C16          6.4771     0.9994     1.1180 C.2          1    LIG   0.0000
  17 N17          5.1049     0.9998     1.0426 N.pl3        1    LIG   0.0000
  18 C18          4.4442     1.0014    -0.1628 C.2          1    LIG   0.0000
  19 O19          5.0361     1.0029    -1.2323 O.2          1    LIG   0.0000
  20 C20          3.0236     1.0017    -0.1940 C.2          1    LIG   0.0000
  21 C21          2.3034     1.0035    -1.4534 C.2          1    LIG   0.0000
  22 C22          2.4722     1.9943    -2.3086 C.2          1    LIG   0.0000
  23 S23          3.5141     3.3646    -2.1444 S.3          1    LIG   0.0000
  24 C24          3.1122     4.1007    -3.6584 C.2          1    LIG   0.0000
  25 N25          3.4673     5.1613    -4.3386 N.2          1    LIG   0.0000
  26 C26          2.7762     5.1111    -5.5093 C.ar         1    LIG   0.0000
  27 C27          2.7997     6.0008    -6.5774 C.ar         1    LIG   0.0000
  28 C28          2.0131     5.7615    -7.6987 C.ar         1    LIG   0.0000
  29 C29          1.2108     4.6258    -7.7267 C.ar         1    LIG   0.0000
  30 C30          1.2146     3.7596    -6.6368 C.ar         1    LIG   0.0000
  31 C31          1.9933     3.9757    -5.5028 C.ar         1    LIG   0.0000
  32 N32          2.2196     3.3392    -4.3131 N.pl3        1    LIG   0.0000
  33 C33          1.8497     2.1737    -3.6037 C.2          1    LIG   0.0000
  34 O34          1.0503     1.3643    -4.0481 O.2          1    LIG   0.0000
  35 C35          1.2181     3.3567     1.0050 C.ar         1    LIG   0.0000
  36 C36          0.6138     4.6096     1.0080 C.ar         1    LIG   0.0000
  37 H           -2.7213     7.1413    -0.2259 H            1    LIG   0.0000
  38 H           -1.7221     6.1427    -1.0451 H            1    LIG   0.0000
  39 H           -2.9992     5.5321    -0.2309 H            1    LIG   0.0000
  40 H           -2.7222     7.1337     2.2562 H            1    LIG   0.0000
  41 H           -3.0001     5.5245     2.2512 H            1    LIG   0.0000
  42 H           -1.7235     6.1301     3.0700 H            1    LIG   0.0000
  43 H           -0.7810     8.0617     1.0187 H            1    LIG   0.0000
  44 H            0.2176     7.0581     1.8324 H            1    LIG   0.0000
  45 H            0.2182     7.0631     0.1995 H            1    LIG   0.0000
  46 H           -2.5691     3.6555     1.0040 H            1    LIG   0.0000
  47 H           -1.5310     1.4947     1.0000 H            1    LIG   0.0000
  48 H            4.4901     0.9958     4.3060 H            1    LIG   0.0000
  49 H            6.8620     0.9947     4.3996 H            1    LIG   0.0000
  50 H            8.1496     0.9979     2.3353 H            1    LIG   0.0000
  51 H            7.0051     1.0003     0.2688 H            1    LIG   0.0000
  52 H            1.6792     0.2539    -1.6735 H            1    LIG   0.0000
  53 H            3.3823     6.8127    -6.5393 H            1    LIG   0.0000
  54 H            2.0240     6.3953    -8.4720 H            1    LIG   0.0000
  55 H            0.6364     4.4332    -8.5223 H            1    LIG   0.0000
  56 H            0.6328     2.9469    -6.6697 H            1    LIG   0.0000
  57 H            2.2148     3.2754     1.0050 H            1    LIG   0.0000
  58 H            1.1766     5.4362     1.0100 H            1    LIG   0.0000
@<TRIPOS>BOND
   1        1        2 1
   2        2        3 1
   3        2        4 1
   4        2        5 1
   5        5        6 ar
   6        6        7 ar
   7        7        8 ar
   8        8        9 1
   9        9       10 1
  10       10       11 1
  11       11       12 2
  12       12       13 1
  13       13       14 2
  14       14       15 1
  15       15       16 2
  16       16       17 1
  17       17       12 1
  18       17       18 1
  19       18       19 2
  20       18       20 1
  21       20       10 2
  22       20       21 1
  23       21       22 2
  24       22       23 1
  25       23       24 1
  26       24       25 2
  27       25       26 1
  28       26       27 ar
  29       27       28 ar
  30       28       29 ar
  31       29       30 ar
  32       30       31 ar
  33       31       26 ar
  34       31       32 1
  35       32       24 1
  36       32       33 1
  37       33       22 1
  38       33       34 2
  39        8       35 ar
  40       35       36 ar
  41       36        5 ar
  42        1       37 1
  43        1       38 1
  44        1       39 1
  45        3       40 1
  46        3       41 1
  47        3       42 1
  48        4       43 1
  49        4       44 1
  50        4       45 1
  51        6       46 1
  52        7       47 1
  53       13       48 1
  54       14       49 1
  55       15       50 1
  56       16       51 1
  57       21       52 1
  58       27       53 1
  59       28       54 1
  60       29       55 1
  61       30       56 1
  62       35       57 1
  63       36       58 1

@<TRIPOS>MOLECULE

  58   63
SMALL
USER_CHARGES
@<TRIPOS>ATOM
   1 C1          -0.9984     6.8470     2.2560 C.3          1    LIG   0.0000
   2 C2          -1.4270     6.0853     1.0124 C.3          1    LIG   0.0000
   3 C3          -0.9975     6.8546    -0.2262 C.3          1    LIG   0.0000
   4 C4          -2.9387     5.9266     1.0114 C.3          1    LIG   0.0000
   5 C5          -0.7734     4.7128     1.0084 C.ar         1    LIG   0.0000
   6 C6          -1.5724     3.5743     1.0047 C.ar         1    LIG   0.0000
   7 C7          -0.9682     2.3213     1.0019 C.ar         1    LIG   0.0000
   8 C8           0.4189     2.2184     1.0018 C.ar         1    LIG   0.0000
   9 O9           1.0000     1.0000     1.0000 O.3          1    LIG   0.0000
  10 C10          2.3499     1.0000     1.0000 C.2          1    LIG   0.0000
  11 N11          3.0469     0.9983     2.1808 N.2          1    LIG   0.0000
  12 C12          4.3680     0.9985     2.2015 C.2          1    LIG   0.0000
  13 C13          5.0252     0.9967     3.4613 C.2          1    LIG   0.0000
  14 C14          6.3953     0.9962     3.5153 C.2          1    LIG   0.0000
  15 C15          7.1498     0.9979     2.3118 C.2          1    LIG   0.0000
  16 C16          6.4771     0.9994     1.1180 C.2          1    LIG   0.0000
  17 N17          5.1049     0.9998     1.0426 N.pl3        1    LIG   0.0000
  18 C18          4.4442     1.0014    -0.1628 C.2          1    LIG   0.0000
  19 O19          5.0361     1.0029    -1.2323 O.2          1    LIG   0.0000
  20 C20          3.0236     1.0017    -0.1940 C.2          1    LIG   0.0000
  21 C21          2.3034     1.0035    -1.4534 C.2          1    LIG   0.0000
  22 C22          1.9762     2.1471    -2.0248 C.2          1    LIG   0.0000
  23 S23          2.3273     3.7453    -1.4653 S.3          1    LIG   0.0000
  24 C24          1.5600     4.5843    -2.7702 C.2          1    LIG   0.0000
  25 N25          1.3799     5.8258    -3.1442 N.2          1    LIG   0.0000
  26 C26          0.7136     5.7731    -4.3290 C.ar         1    LIG   0.0000
  27 C27          0.2874     6.8191    -5.1398 C.ar         1    LIG   0.0000
  28 C28         -0.3799     6.5488    -6.3293 C.ar         1    LIG   0.0000
  29 C29         -0.6098     5.2241    -6.6849 C.ar         1    LIG   0.0000
  30 C30         -0.1681     4.2049    -5.8456 C.ar         1    LIG   0.0000
  31 C31          0.5030     4.4484    -4.6501 C.ar         1    LIG   0.0000
  32 N32          1.0507     3.7000    -3.6443 N.pl3        1    LIG   0.0000
  33 C33          1.2646     2.3539    -3.2690 C.2          1    LIG   0.0000
  34 O34          0.8720     1.4165    -3.9461 O.2          1    LIG   0.0000
  35 C35          1.2181     3.3567     1.0050 C.ar         1    LIG   0.0000
  36 C36          0.6138     4.6096     1.0080 C.ar         1    LIG   0.0000
  37 H           -1.4283     7.7499     2.2586 H            1    LIG   0.0000
  38 H           -1.2809     6.3409     3.0708 H            1    LIG   0.0000
  39 H           -0.0038     6.9514     2.2566 H            1    LIG   0.0000
  40 H           -1.4275     7.7574    -0.2236 H            1    LIG   0.0000
  41 H           -0.0030     6.9590    -0.2255 H            1    LIG   0.0000
  42 H           -1.2795     6.3534    -1.0443 H            1    LIG   0.0000
  43 H           -3.3687     6.8294     1.0140 H            1    LIG   0.0000
  44 H           -3.2207     5.4254     0.1933 H            1    LIG   0.0000
  45 H           -3.2213     5.4204     1.8263 H            1    LIG   0.0000
  46 H           -2.5691     3.6555     1.0040 H            1    LIG   0.0000
  47 H           -1.5310     1.4947     1.0000 H            1    LIG   0.0000
  48 H            4.4901     0.9958     4.3060 H            1    LIG   0.0000
  49 H            6.8620     0.9947     4.3996 H            1    LIG   0.0000
  50 H            8.1496     0.9979     2.3353 H            1    LIG   0.0000
  51 H            7.0051     1.0003     0.2688 H            1    LIG   0.0000
  52 H            2.0551     0.1380    -1.8886 H            1    LIG   0.0000
  53 H            0.4608     7.7656    -4.8675 H            1    LIG   0.0000
  54 H           -0.6895     7.2946    -6.9193 H            1    LIG   0.0000
  55 H           -1.0880     5.0056    -7.5355 H            1    LIG   0.0000
  56 H           -0.3402     3.2568    -6.1129 H            1    LIG   0.0000
  57 H            2.2148     3.2754     1.0050 H            1    LIG   0.0000
  58 H            1.1766     5.4362     1.0100 H            1    LIG   0.0000
@<TRIPOS>BOND
   1        1        2 1
   2        2        3 1
   3        2        4 1
   4        2        5 1
   5        5        6 ar
   6        6        7 ar
   7        7        8 ar
   8        8        9 1
   9        9       10 1
  10       10       11 1
  11       11       12 2
  12       12       13 1
  13       13       14 2
  14       14       15 1
  15       15       16 2
  16       16       17 1
  17       17       12 1
  18       17       18 1
  19       18       19 2
  20       18       20 1
  21       20       10 2
  22       20       21 1
  23       21       22 2
  24       22       23 1
  25       23       24 1
  26       24       25 2
  27       25       26 1
  28       26       27 ar
  29       27       28 ar
  30       28       29 ar
  31       29       30 ar
  32       30       31 ar
  33       31       26 ar
  34       31       32 1
  35       32       24 1
  36       32       33 1
  37       33       22 1
  38       33       34 2
  39        8       35 ar
  40       35       36 ar
  41       36        5 ar
  42        1       37 1
  43        1       38 1
  44        1       39 1
  45        3       40 1
  46        3       41 1
  47        3       42 1
  48        4       43 1
  49        4       44 1
  50        4       45 1
  51        6       46 1
  52        7       47 1
  53       13       48 1
  54       14       49 1
  55       15       50 1
  56       16       51 1
  57       21       52 1
  58       27       53 1
  59       28       54 1
  60       29       55 1
  61       30       56 1
  62       35       57 1
  63       36       58 1

@<TRIPOS>MOLECULE

  58   63
SMALL
USER_CHARGES
@<TRIPOS>ATOM
   1 C1          -2.2913     6.2384    -0.2285 C.3          1    LIG   0.0000
   2 C2          -1.4270     6.0853     1.0124 C.3          1    LIG   0.0000
   3 C3          -2.2922     6.2308     2.2536 C.3          1    LIG   0.0000
   4 C4          -0.3510     7.1589     1.0161 C.3          1    LIG   0.0000
   5 C5          -0.7734     4.7128     1.0084 C.ar         1    LIG   0.0000
   6 C6          -1.5724     3.5743     1.0047 C.ar         1    LIG   0.0000
   7 C7          -0.9682     2.3213     1.0019 C.ar         1    LIG   0.0000
   8 C8           0.4189     2.2184     1.0018 C.ar         1    LIG   0.0000
   9 O9           1.0000     1.0000     1.0000 O.3          1    LIG   0.0000
  10 C10          2.3499     1.0000     1.0000 C.2          1    LIG   0.0000
  11 N11          3.0469     0.9983     2.1808 N.2          1    LIG   0.0000
  12 C12          4.3680     0.9985     2.2015 C.2          1    LIG   0.0000
  13 C13          5.0252     0.9967     3.4613 C.2          1    LIG   0.0000
  14 C14          6.3953     0.9962     3.5153 C.2          1    LIG   0.0000
  15 C15          7.1498     0.9979     2.3118 C.2          1    LIG   0.0000
  16 C16          6.4771     0.9994     1.1180 C.2          1    LIG   0.0000
  17 N17          5.1049     0.9998     1.0426 N.pl3        1    LIG   0.0000
  18 C18          4.4442     1.0014    -0.1628 C.2          1    LIG   0.0000
  19 O19          5.0361     1.0029    -1.2323 O.2          1    LIG   0.0000
  20 C20          3.0236     1.0017    -0.1940 C.2          1    LIG   0.0000
  21 C21          2.3034     1.0035    -1.4534 C.2          1    LIG   0.0000
  22 C22          2.4718     0.0148    -2.3112 C.2          1    LIG   0.0000
  23 S23          3.4712    -1.3844    -2.1266 S.3          1    LIG   0.0000
  24 C24          3.0962    -2.0983    -3.6580 C.2          1    LIG   0.0000
  25 N25          3.4059    -3.1871    -4.3153 N.2          1    LIG   0.0000
  26 C26          2.7004    -3.1432    -5.4775 C.ar         1    LIG   0.0000
  27 C27          2.6739    -4.0632    -6.5196 C.ar         1    LIG   0.0000
  28 C28          1.8709    -3.8316    -7.6309 C.ar         1    LIG   0.0000
  29 C29          1.1046    -2.6719    -7.6763 C.ar         1    LIG   0.0000
  30 C30          1.1593    -1.7748    -6.6130 C.ar         1    LIG   0.0000
  31 C31          1.9541    -1.9834    -5.4888 C.ar         1    LIG   0.0000
  32 N32          2.2169    -1.3260    -4.3182 N.pl3        1    LIG   0.0000
  33 C33          1.8492    -0.1610    -3.6068 C.2          1    LIG   0.0000
  34 O34          1.0581     0.6550    -4.0535 O.2          1    LIG   0.0000
  35 C35          1.2181     3.3567     1.0050 C.ar         1    LIG   0.0000
  36 C36          0.6138     4.6096     1.0080 C.ar         1    LIG   0.0000
  37 H           -2.7213     7.1413    -0.2259 H            1    LIG   0.0000
  38 H           -1.7221     6.1427    -1.0451 H            1    LIG   0.0000
  39 H           -2.9992     5.5321    -0.2309 H            1    LIG   0.0000
  40 H           -2.7222     7.1337     2.2562 H            1    LIG   0.0000
  41 H           -3.0001     5.5245     2.2512 H            1    LIG   0.0000
  42 H           -1.7235     6.1301     3.0700 H            1    LIG   0.0000
  43 H           -0.7810     8.0617     1.0187 H            1    LIG   0.0000
  44 H            0.2176     7.0581     1.8324 H            1    LIG   0.0000
  45 H            0.2182     7.0631     0.1995 H            1    LIG   0.0000
  46 H           -2.5691     3.6555     1.0040 H            1    LIG   0.0000
  47 H           -1.5310     1.4947     1.0000 H            1    LIG   0.0000
  48 H            4.4901     0.9958     4.3060 H            1    LIG   0.0000
  49 H            6.8620     0.9947     4.3996 H            1    LIG   0.0000
  50 H            8.1496     0.9979     2.3353 H            1    LIG   0.0000
  51 H            7.0051     1.0003     0.2688 H            1    LIG   0.0000
  52 H            1.6795     1.7539    -1.6716 H            1    LIG   0.0000
  53 H            3.2323    -4.8913    -6.4700 H            1    LIG   0.0000
  54 H            1.8448    -4.4880    -8.3848 H            1    LIG   0.0000
  55 H            0.5198    -2.4840    -8.4654 H            1    LIG   0.0000
  56 H            0.6036    -0.9447    -6.6585 H            1    LIG   0.0000
  57 H            2.2148     3.2754     1.0050 H            1    LIG   0.0000
  58 H            1.1766     5.4362     1.0100 H            1    LIG   0.0000
@<TRIPOS>BOND
   1        1        2 1
   2        2        3 1
   3        2        4 1
   4        2        5 1
   5        5        6 ar
   6        6        7 ar
   7        7        8 ar
   8        8        9 1
   9        9       10 1
  10       10       11 1
  11       11       12 2
  12       12       13 1
  13       13       14 2
  14       14       15 1
  15       15       16 2
  16       16       17 1
  17       17       12 1
  18       17       18 1
  19       18       19 2
  20       18       20 1
  21       20       10 2
  22       20       21 1
  23       21       22 2
  24       22       23 1
  25       23       24 1
  26       24       25 2
  27       25       26 1
  28       26       27 ar
  29       27       28 ar
  30       28       29 ar
  31       29       30 ar
  32       30       31 ar
  33       31       26 ar
  34       31       32 1
  35       32       24 1
  36       32       33 1
  37       33       22 1
  38       33       34 2
  39        8       35 ar
  40       35       36 ar
  41       36        5 ar
  42        1       37 1
  43        1       38 1
  44        1       39 1
  45        3       40 1
  46        3       41 1
  47        3       42 1
  48        4       43 1
  49        4       44 1
  50        4       45 1
  51        6       46 1
  52        7       47 1
  53       13       48 1
  54       14       49 1
  55       15       50 1
  56       16       51 1
  57       21       52 1
  58       27       53 1
  59       28       54 1
  60       29       55 1
  61       30       56 1
  62       35       57 1
  63       36       58 1

@<TRIPOS>MOLECULE

  58   63
SMALL
USER_CHARGES
@<TRIPOS>ATOM
   1 C1          -0.9984     6.8470     2.2560 C.3          1    LIG   0.0000
   2 C2          -1.4270     6.0853     1.0124 C.3          1    LIG   0.0000
   3 C3          -0.9975     6.8546    -0.2262 C.3          1    LIG   0.0000
   4 C4          -2.9387     5.9266     1.0114 C.3          1    LIG   0.0000
   5 C5          -0.7734     4.7128     1.0084 C.ar         1    LIG   0.0000
   6 C6          -1.5724     3.5743     1.0047 C.ar         1    LIG   0.0000
   7 C7          -0.9682     2.3213     1.0019 C.ar         1    LIG   0.0000
   8 C8           0.4189     2.2184     1.0018 C.ar         1    LIG   0.0000
   9 O9           1.0000     1.0000     1.0000 O.3          1    LIG   0.0000
  10 C10          2.3499     1.0000     1.0000 C.2          1    LIG   0.0000
  11 N11          3.0469     1.5889     2.0235 N.2          1    LIG   0.0000
  12 C12          4.3680     1.5995     2.0413 C.2          1    LIG   0.0000
  13 C13          5.0252     2.2278     3.1331 C.2          1    LIG   0.0000
  14 C14          6.3953     2.2544     3.1802 C.2          1    LIG   0.0000
  15 C15          7.1498     1.6541     2.1371 C.2          1    LIG   0.0000
  16 C16          6.4771     1.0585     1.1025 C.2          1    LIG   0.0000
  17 N17          5.1049     1.0212     1.0370 N.pl3        1    LIG   0.0000
  18 C18          4.4442     0.4198    -0.0077 C.2          1    LIG   0.0000
  19 O19          5.0361    -0.1136    -0.9346 O.2          1    LIG   0.0000
  20 C20          3.0236     0.4045    -0.0349 C.2          1    LIG   0.0000
  21 C21          2.3034    -0.2237    -1.1265 C.2          1    LIG   0.0000
  22 C22          2.4722     0.2068    -2.3625 C.2          1    LIG   0.0000
  23 S23          3.5141     1.4756    -2.9055 S.3          1    LIG   0.0000
  24 C24          3.1122     1.3561    -4.5847 C.2          1    LIG   0.0000
  25 N25          3.4673     1.9345    -5.7040 N.2          1    LIG   0.0000
  26 C26          2.7762     1.3056    -6.6927 C.ar         1    LIG   0.0000
  27 C27          2.7997     1.5421    -8.0627 C.ar         1    LIG   0.0000
  28 C28          2.0131     0.7742    -8.9140 C.ar         1    LIG   0.0000
  29 C29          1.2108    -0.2233    -8.3704 C.ar         1    LIG   0.0000
  30 C30          1.2146    -0.4286    -6.9934 C.ar         1    LIG   0.0000
  31 C31          1.9933     0.3256    -6.1195 C.ar         1    LIG   0.0000
  32 N32          2.2196     0.3692    -4.7709 N.pl3        1    LIG   0.0000
  33 C33          1.8497    -0.2854    -3.5738 C.2          1    LIG   0.0000
  34 O34          1.0503    -1.2085    -3.5539 O.2          1    LIG   0.0000
  35 C35          1.2181     3.3567     1.0050 C.ar         1    LIG   0.0000
  36 C36          0.6138     4.6096     1.0080 C.ar         1    LIG   0.0000
  37 H           -1.4283     7.7499     2.2586 H            1    LIG   0.0000
  38 H           -1.2809     6.3409     3.0708 H            1    LIG   0.0000
  39 H           -0.0038     6.9514     2.2566 H            1    LIG   0.0000
  40 H           -1.4275     7.7574    -0.2236 H            1    LIG   0.0000
  41 H           -0.0030     6.9590    -0.2255 H            1    LIG   0.0000
  42 H           -1.2795     6.3534    -1.0443 H            1    LIG   0.0000
  43 H           -3.3687     6.8294     1.0140 H            1    LIG   0.0000
  44 H           -3.2207     5.4254     0.1933 H            1    LIG   0.0000
  45 H           -3.2213     5.4204     1.8263 H            1    LIG   0.0000
  46 H           -2.5691     3.6555     1.0040 H            1    LIG   0.0000
  47 H           -1.5310     1.4947     1.0000 H            1    LIG   0.0000
  48 H            4.4901     2.6494     3.8652 H            1    LIG   0.0000
  49 H            6.8620     2.6952     3.9468 H            1    LIG   0.0000
  50 H            8.1496     1.6659     2.1574 H            1    LIG   0.0000
  51 H            7.0051     0.6346     0.3666 H            1    LIG   0.0000
  52 H            1.6792    -0.9829    -0.9423 H            1    LIG   0.0000
  53 H            3.3823     2.2643    -8.4356 H            1    LIG   0.0000
  54 H            2.0240     0.9365    -9.9007 H            1    LIG   0.0000
  55 H            0.6364    -0.7879    -8.9632 H            1    LIG   0.0000
  56 H            0.6328    -1.1488    -6.6156 H            1    LIG   0.0000
  57 H            2.2148     3.2754     1.0050 H            1    LIG   0.0000
  58 H            1.1766     5.4362     1.0100 H            1    LIG   0.0000
@<TRIPOS>BOND
   1        1        2 1
   2        2        3 1
   3        2        4 1
   4        2        5 1
   5        5        6 ar
   6        6        7 ar
   7        7        8 ar
   8        8        9 1
   9        9       10 1
  10       10       11 1
  11       11       12 2
  12       12       13 1
  13       13       14 2
  14       14       15 1
  15       15       16 2
  16       16       17 1
  17       17       12 1
  18       17       18 1
  19       18       19 2
  20       18       20 1
  21       20       10 2
  22       20       21 1
  23       21       22 2
  24       22       23 1
  25       23       24 1
  26       24       25 2
  27       25       26 1
  28       26       27 ar
  29       27       28 ar
  30       28       29 ar
  31       29       30 ar
  32       30       31 ar
  33       31       26 ar
  34       31       32 1
  35       32       24 1
  36       32       33 1
  37       33       22 1
  38       33       34 2
  39        8       35 ar
  40       35       36 ar
  41       36        5 ar
  42        1       37 1
  43        1       38 1
  44        1       39 1
  45        3       40 1
  46        3       41 1
  47        3       42 1
  48        4       43 1
  49        4       44 1
  50        4       45 1
  51        6       46 1
  52        7       47 1
  53       13       48 1
  54       14       49 1
  55       15       50 1
  56       16       51 1
  57       21       52 1
  58       27       53 1
  59       28       54 1
  60       29       55 1
  61       30       56 1
  62       35       57 1
  63       36       58 1

@<TRIPOS>MOLECULE

  58   63
SMALL
USER_CHARGES
@<TRIPOS>ATOM
   1 C1          -0.5292     7.0782     0.2925 C.3          1    LIG   0.0000
   2 C2          -1.4304     6.0837     1.0060 C.3          1    LIG   0.0000
   3 C3          -2.7681     6.0067     0.2885 C.3          1    LIG   0.0000
   4 C4          -1.6500     6.5372     2.4401 C.3          1    LIG   0.0000
   5 C5          -0.7741     4.7124     1.0031 C.ar         1    LIG   0.0000
   6 C6          -0.4779     4.0981    -0.2090 C.ar         1    LIG   0.0000
   7 C7           0.1218     2.8429    -0.2049 C.ar         1    LIG   0.0000
   8 C8           0.4189     2.2184     1.0018 C.ar         1    LIG   0.0000
   9 O9           1.0000     1.0000     1.0000 O.3          1    LIG   0.0000
  10 C10          2.3499     1.0000     1.0000 C.2          1    LIG   0.0000
  11 N11          3.0469     1.5889     2.0235 N.2          1    LIG   0.0000
  12 C12          4.3680     1.5995     2.0413 C.2          1    LIG   0.0000
  13 C13          5.0252     2.2278     3.1331 C.2          1    LIG   0.0000
  14 C14          6.3953     2.2544     3.1802 C.2          1    LIG   0.0000
  15 C15          7.1498     1.6541     2.1371 C.2          1    LIG   0.0000
  16 C16          6.4771     1.0585     1.1025 C.2          1    LIG   0.0000
  17 N17          5.1049     1.0212     1.0370 N.pl3        1    LIG   0.0000
  18 C18          4.4442     0.4198    -0.0077 C.2          1    LIG   0.0000
  19 O19          5.0361    -0.1136    -0.9346 O.2          1    LIG   0.0000
  20 C20          3.0236     0.4045    -0.0349 C.2          1    LIG   0.0000
  21 C21          2.3034    -0.2237    -1.1265 C.2          1    LIG   0.0000
  22 C22          1.9762     0.4810    -2.1931 C.2          1    LIG   0.0000
  23 S23          2.3273     2.1448    -2.5077 S.3          1    LIG   0.0000
  24 C24          1.5600     2.2190    -4.0573 C.2          1    LIG   0.0000
  25 N25          1.3799     3.1072    -5.0018 N.2          1    LIG   0.0000
  26 C26          0.7136     2.4691    -6.0016 C.ar         1    LIG   0.0000
  27 C27          0.2874     2.9696    -7.2268 C.ar         1    LIG   0.0000
  28 C28         -0.3799     2.1408    -8.1218 C.ar         1    LIG   0.0000
  29 C29         -0.6098     0.8157    -7.7673 C.ar         1    LIG   0.0000
  30 C30         -0.1681     0.3527    -6.5309 C.ar         1    LIG   0.0000
  31 C31          0.5030     1.1614    -5.6173 C.ar         1    LIG   0.0000
  32 N32          1.0507     1.0161    -4.3720 N.pl3        1    LIG   0.0000
  33 C33          1.2646     0.0381    -3.3740 C.2          1    LIG   0.0000
  34 O34          0.8720    -1.1124    -3.4916 O.2          1    LIG   0.0000
  35 C35          0.1233     2.8327     2.2141 C.ar         1    LIG   0.0000
  36 C36         -0.4767     4.0877     2.2099 C.ar         1    LIG   0.0000
  37 H           -0.9609     7.9802     0.2944 H            1    LIG   0.0000
  38 H            0.3509     7.1288     0.7646 H            1    LIG   0.0000
  39 H           -0.3847     6.7798    -0.6509 H            1    LIG   0.0000
  40 H           -3.1998     6.9087     0.2904 H            1    LIG   0.0000
  41 H           -2.6236     5.7083    -0.6550 H            1    LIG   0.0000
  42 H           -3.3610     5.3524     0.7579 H            1    LIG   0.0000
  43 H           -2.0817     7.4392     2.4420 H            1    LIG   0.0000
  44 H           -2.2429     5.8829     2.9095 H            1    LIG   0.0000
  45 H           -0.7699     6.5879     2.9122 H            1    LIG   0.0000
  46 H           -0.6935     4.5531    -1.0730 H            1    LIG   0.0000
  47 H            0.3393     2.3898    -1.0694 H            1    LIG   0.0000
  48 H            4.4901     2.6494     3.8652 H            1    LIG   0.0000
  49 H            6.8620     2.6952     3.9468 H            1    LIG   0.0000
  50 H            8.1496     1.6659     2.1574 H            1    LIG   0.0000
  51 H            7.0051     0.6346     0.3666 H            1    LIG   0.0000
  52 H            2.0551    -1.1908    -1.0706 H            1    LIG   0.0000
  53 H            0.4608     3.9254    -7.4642 H            1    LIG   0.0000
  54 H           -0.6895     2.4916    -9.0056 H            1    LIG   0.0000
  55 H           -1.0880     0.2012    -8.3948 H            1    LIG   0.0000
  56 H           -0.3402    -0.6020    -6.2884 H            1    LIG   0.0000
  57 H            0.3394     2.3779     3.0780 H            1    LIG   0.0000
  58 H           -0.6943     4.5408     3.0744 H            1    LIG   0.0000
@<TRIPOS>BOND
   1        1        2 1
   2        2        3 1
   3        2        4 1
   4        2        5 1
   5        5        6 ar
   6        6        7 ar
   7        7        8 ar
   8        8        9 1
   9        9       10 1
  10       10       11 1
  11       11       12 2
  12       12       13 1
  13       13       14 2
  14       14       15 1
  15       15       16 2
  16       16       17 1
  17       17       12 1
  18       17       18 1
  19       18       19 2
  20       18       20 1
  21       20       10 2
  22       20       21 1
  23       21       22 2
  24       22       23 1
  25       23       24 1
  26       24       25 2
  27       25       26 1
  28       26       27 ar
  29       27       28 ar
  30       28       29 ar
  31       29       30 ar
  32       30       31 ar
  33       31       26 ar
  34       31       32 1
  35       32       24 1
  36       32       33 1
  37       33       22 1
  38       33       34 2
  39        8       35 ar
  40       35       36 ar
  41       36        5 ar
  42        1       37 1
  43        1       38 1
  44        1       39 1
  45        3       40 1
  46        3       41 1
  47        3       42 1
  48        4       43 1
  49        4       44 1
  50        4       45 1
  51        6       46 1
  52        7       47 1
  53       13       48 1
  54       14       49 1
  55       15       50 1
  56       16       51 1
  57       21       52 1
  58       27       53 1
  59       28       54 1
  60       29       55 1
  61       30       56 1
  62       35       57 1
  63       36       58 1

@<TRIPOS>MOLECULE

  58   63
SMALL
USER_CHARGES
@<TRIPOS>ATOM
   1 C1          -0.9984     6.8470     2.2560 C.3          1    LIG   0.0000
   2 C2          -1.4270     6.0853     1.0124 C.3          1    LIG   0.0000
   3 C3          -0.9975     6.8546    -0.2262 C.3          1    LIG   0.0000
   4 C4          -2.9387     5.9266     1.0114 C.3          1    LIG   0.0000
   5 C5          -0.7734     4.7128     1.0084 C.ar         1    LIG   0.0000
   6 C6          -1.5724     3.5743     1.0047 C.ar         1    LIG   0.0000
   7 C7          -0.9682     2.3213     1.0019 C.ar         1    LIG   0.0000
   8 C8           0.4189     2.2184     1.0018 C.ar         1    LIG   0.0000
   9 O9           1.0000     1.0000     1.0000 O.3          1    LIG   0.0000
  10 C10          2.3499     1.0000     1.0000 C.2          1    LIG   0.0000
  11 N11          3.0469     1.5889     2.0235 N.2          1    LIG   0.0000
  12 C12          4.3680     1.5995     2.0413 C.2          1    LIG   0.0000
  13 C13          5.0252     2.2278     3.1331 C.2          1    LIG   0.0000
  14 C14          6.3953     2.2544     3.1802 C.2          1    LIG   0.0000
  15 C15          7.1498     1.6541     2.1371 C.2          1    LIG   0.0000
  16 C16          6.4771     1.0585     1.1025 C.2          1    LIG   0.0000
  17 N17          5.1049     1.0212     1.0370 N.pl3        1    LIG   0.0000
  18 C18          4.4442     0.4198    -0.0077 C.2          1    LIG   0.0000
  19 O19          5.0361    -0.1136    -0.9346 O.2          1    LIG   0.0000
  20 C20          3.0236     0.4045    -0.0349 C.2          1    LIG   0.0000
  21 C21          2.3034    -0.2237    -1.1265 C.2          1    LIG   0.0000
  22 C22          2.4718    -1.5088    -1.3750 C.2          1    LIG   0.0000
  23 S23          3.4712    -2.6282    -0.5155 S.3          1    LIG   0.0000
  24 C24          3.0962    -4.0122    -1.4848 C.2          1    LIG   0.0000
  25 N25          3.4059    -5.2838    -1.5096 N.2          1    LIG   0.0000
  26 C26          2.7004    -5.8269    -2.5381 C.ar         1    LIG   0.0000
  27 C27          2.6739    -7.1447    -2.9806 C.ar         1    LIG   0.0000
  28 C28          1.8709    -7.4997    -4.0587 C.ar         1    LIG   0.0000
  29 C29          1.1046    -6.5181    -4.6779 C.ar         1    LIG   0.0000
  30 C30          1.1593    -5.2096    -4.2056 C.ar         1    LIG   0.0000
  31 C31          1.9541    -4.8281    -3.1278 C.ar         1    LIG   0.0000
  32 N32          2.2169    -3.6734    -2.4427 N.pl3        1    LIG   0.0000
  33 C33          1.8492    -2.3088    -2.4091 C.2          1    LIG   0.0000
  34 O34          1.0581    -1.8255    -3.2040 O.2          1    LIG   0.0000
  35 C35          1.2181     3.3567     1.0050 C.ar         1    LIG   0.0000
  36 C36          0.6138     4.6096     1.0080 C.ar         1    LIG   0.0000
  37 H           -1.4283     7.7499     2.2586 H            1    LIG   0.0000
  38 H           -1.2809     6.3409     3.0708 H            1    LIG   0.0000
  39 H           -0.0038     6.9514     2.2566 H            1    LIG   0.0000
  40 H           -1.4275     7.7574    -0.2236 H            1    LIG   0.0000
  41 H           -0.0030     6.9590    -0.2255 H            1    LIG   0.0000
  42 H           -1.2795     6.3534    -1.0443 H            1    LIG   0.0000
  43 H           -3.3687     6.8294     1.0140 H            1    LIG   0.0000
  44 H           -3.2207     5.4254     0.1933 H            1    LIG   0.0000
  45 H           -3.2213     5.4204     1.8263 H            1    LIG   0.0000
  46 H           -2.5691     3.6555     1.0040 H            1    LIG   0.0000
  47 H           -1.5310     1.4947     1.0000 H            1    LIG   0.0000
  48 H            4.4901     2.6494     3.8652 H            1    LIG   0.0000
  49 H            6.8620     2.6952     3.9468 H            1    LIG   0.0000
  50 H            8.1496     1.6659     2.1574 H            1    LIG   0.0000
  51 H            7.0051     0.6346     0.3666 H            1    LIG   0.0000
  52 H            1.6795     0.3171    -1.6906 H            1    LIG   0.0000
  53 H            3.2323    -7.8370    -2.5235 H            1    LIG   0.0000
  54 H            1.8448    -8.4452    -4.3835 H            1    LIG   0.0000
  55 H            0.5198    -6.7499    -5.4552 H            1    LIG   0.0000
  56 H            0.6036    -4.5134    -4.6601 H            1    LIG   0.0000
  57 H            2.2148     3.2754     1.0050 H            1    LIG   0.0000
  58 H            1.1766     5.4362     1.0100 H            1    LIG   0.0000
@<TRIPOS>BOND
   1        1        2 1
   2        2        3 1
   3        2        4 1
   4        2        5 1
   5        5        6 ar
   6        6        7 ar
   7        7        8 ar
   8        8        9 1
   9        9       10 1
  10       10       11 1
  11       11       12 2
  12       12       13 1
  13       13       14 2
  14       14       15 1
  15       15       16 2
  16       16       17 1
  17       17       12 1
  18       17       18 1
  19       18       19 2
  20       18       20 1
  21       20       10 2
  22       20       21 1
  23       21       22 2
  24       22       23 1
  25       23       24 1
  26       24       25 2
  27       25       26 1
  28       26       27 ar
  29       27       28 ar
  30       28       29 ar
  31       29       30 ar
  32       30       31 ar
  33       31       26 ar
  34       31       32 1
  35       32       24 1
  36       32       33 1
  37       33       22 1
  38       33       34 2
  39        8       35 ar
  40       35       36 ar
  41       36        5 ar
  42        1       37 1
  43        1       38 1
  44        1       39 1
  45        3       40 1
  46        3       41 1
  47        3       42 1
  48        4       43 1
  49        4       44 1
  50        4       45 1
  51        6       46 1
  52        7       47 1
  53       13       48 1
  54       14       49 1
  55       15       50 1
  56       16       51 1
  57       21       52 1
  58       27       53 1
  59       28       54 1
  60       29       55 1
  61       30       56 1
  62       35       57 1
  63       36       58 1

@<TRIPOS>MOLECULE

  58   63
SMALL
USER_CHARGES
@<TRIPOS>ATOM
   1 C1          -0.5292     7.0782     0.2925 C.3          1    LIG   0.0000
   2 C2          -1.4304     6.0837     1.0060 C.3          1    LIG   0.0000
   3 C3          -2.7681     6.0067     0.2885 C.3          1    LIG   0.0000
   4 C4          -1.6500     6.5372     2.4401 C.3          1    LIG   0.0000
   5 C5          -0.7741     4.7124     1.0031 C.ar         1    LIG   0.0000
   6 C6          -0.4779     4.0981    -0.2090 C.ar         1    LIG   0.0000
   7 C7           0.1218     2.8429    -0.2049 C.ar         1    LIG   0.0000
   8 C8           0.4189     2.2184     1.0018 C.ar         1    LIG   0.0000
   9 O9           1.0000     1.0000     1.0000 O.3          1    LIG   0.0000
  10 C10          2.3499     1.0000     1.0000 C.2          1    LIG   0.0000
  11 N11          3.0469     2.1808     1.0017 N.2          1    LIG   0.0000
  12 C12          4.3680     2.2015     1.0015 C.2          1    LIG   0.0000
  13 C13          5.0252     3.4613     1.0033 C.2          1    LIG   0.0000
  14 C14          6.3953     3.5153     1.0038 C.2          1    LIG   0.0000
  15 C15          7.1498     2.3118     1.0021 C.2          1    LIG   0.0000
  16 C16          6.4771     1.1180     1.0006 C.2          1    LIG   0.0000
  17 N17          5.1049     1.0426     1.0002 N.pl3        1    LIG   0.0000
  18 C18          4.4442    -0.1628     0.9986 C.2          1    LIG   0.0000
  19 O19          5.0361    -1.2323     0.9971 O.2          1    LIG   0.0000
  20 C20          3.0236    -0.1940     0.9983 C.2          1    LIG   0.0000
  21 C21          2.3034    -1.4534     0.9965 C.2          1    LIG   0.0000
  22 C22          2.4722    -2.3086     0.0057 C.2          1    LIG   0.0000
  23 S23          3.5141    -2.1444    -1.3646 S.3          1    LIG   0.0000
  24 C24          3.1122    -3.6584    -2.1007 C.2          1    LIG   0.0000
  25 N25          3.4673    -4.3386    -3.1613 N.2          1    LIG   0.0000
  26 C26          2.7762    -5.5093    -3.1111 C.ar         1    LIG   0.0000
  27 C27          2.7997    -6.5774    -4.0008 C.ar         1    LIG   0.0000
  28 C28          2.0131    -7.6987    -3.7615 C.ar         1    LIG   0.0000
  29 C29          1.2108    -7.7267    -2.6258 C.ar         1    LIG   0.0000
  30 C30          1.2146    -6.6368    -1.7596 C.ar         1    LIG   0.0000
  31 C31          1.9933    -5.5028    -1.9757 C.ar         1    LIG   0.0000
  32 N32          2.2196    -4.3131    -1.3392 N.pl3        1    LIG   0.0000
  33 C33          1.8497    -3.6037    -0.1737 C.2          1    LIG   0.0000
  34 O34          1.0503    -4.0481     0.6357 O.2          1    LIG   0.0000
  35 C35          0.1233     2.8327     2.2141 C.ar         1    LIG   0.0000
  36 C36         -0.4767     4.0877     2.2099 C.ar         1    LIG   0.0000
  37 H           -0.9609     7.9802     0.2944 H            1    LIG   0.0000
  38 H            0.3509     7.1288     0.7646 H            1    LIG   0.0000
  39 H           -0.3847     6.7798    -0.6509 H            1    LIG   0.0000
  40 H           -3.1998     6.9087     0.2904 H            1    LIG   0.0000
  41 H           -2.6236     5.7083    -0.6550 H            1    LIG   0.0000
  42 H           -3.3610     5.3524     0.7579 H            1    LIG   0.0000
  43 H           -2.0817     7.4392     2.4420 H            1    LIG   0.0000
  44 H           -2.2429     5.8829     2.9095 H            1    LIG   0.0000
  45 H           -0.7699     6.5879     2.9122 H            1    LIG   0.0000
  46 H           -0.6935     4.5531    -1.0730 H            1    LIG   0.0000
  47 H            0.3393     2.3898    -1.0694 H            1    LIG   0.0000
  48 H            4.4901     4.3060     1.0042 H            1    LIG   0.0000
  49 H            6.8620     4.3996     1.0053 H            1    LIG   0.0000
  50 H            8.1496     2.3353     1.0021 H            1    LIG   0.0000
  51 H            7.0051     0.2688     0.9997 H            1    LIG   0.0000
  52 H            1.6792    -1.6735     1.7461 H            1    LIG   0.0000
  53 H            3.3823    -6.5393    -4.8127 H            1    LIG   0.0000
  54 H            2.0240    -8.4720    -4.3953 H            1    LIG   0.0000
  55 H            0.6364    -8.5223    -2.4332 H            1    LIG   0.0000
  56 H            0.6328    -6.6697    -0.9469 H            1    LIG   0.0000
  57 H            0.3394     2.3779     3.0780 H            1    LIG   0.0000
  58 H           -0.6943     4.5408     3.0744 H            1    LIG   0.0000
@<TRIPOS>BOND
   1        1        2 1
   2        2        3 1
   3        2        4 1
   4        2        5 1
   5        5        6 ar
   6        6        7 ar
   7        7        8 ar
   8        8        9 1
   9        9       10 1
  10       10       11 1
  11       11       12 2
  12       12       13 1
  13       13       14 2
  14       14       15 1
  15       15       16 2
  16       16       17 1
  17       17       12 1
  18       17       18 1
  19       18       19 2
  20       18       20 1
  21       20       10 2
  22       20       21 1
  23       21       22 2
  24       22       23 1
  25       23       24 1
  26       24       25 2
  27       25       26 1
  28       26       27 ar
  29       27       28 ar
  30       28       29 ar
  31       29       30 ar
  32       30       31 ar
  33       31       26 ar
  34       31       32 1
  35       32       24 1
  36       32       33 1
  37       33       22 1
  38       33       34 2
  39        8       35 ar
  40       35       36 ar
  41       36        5 ar
  42        1       37 1
  43        1       38 1
  44        1       39 1
  45        3       40 1
  46        3       41 1
  47        3       42 1
  48        4       43 1
  49        4       44 1
  50        4       45 1
  51        6       46 1
  52        7       47 1
  53       13       48 1
  54       14       49 1
  55       15       50 1
  56       16       51 1
  57       21       52 1
  58       27       53 1
  59       28       54 1
  60       29       55 1
  61       30       56 1
  62       35       57 1
  63       36       58 1

@<TRIPOS>MOLECULE

  58   63
SMALL
USER_CHARGES
@<TRIPOS>ATOM
   1 C1          -2.7690     6.0032     1.7215 C.3          1    LIG   0.0000
   2 C2          -1.4304     6.0837     1.0060 C.3          1    LIG   0.0000
   3 C3          -0.5301     7.0747     1.7256 C.3          1    LIG   0.0000
   4 C4          -1.6482     6.5442    -0.4260 C.3          1    LIG   0.0000
   5 C5          -0.7741     4.7124     1.0031 C.ar         1    LIG   0.0000
   6 C6          -0.4779     4.0981    -0.2090 C.ar         1    LIG   0.0000
   7 C7           0.1218     2.8429    -0.2049 C.ar         1    LIG   0.0000
   8 C8           0.4189     2.2184     1.0018 C.ar         1    LIG   0.0000
   9 O9           1.0000     1.0000     1.0000 O.3          1    LIG   0.0000
  10 C10          2.3499     1.0000     1.0000 C.2          1    LIG   0.0000
  11 N11          3.0469     2.1808     1.0017 N.2          1    LIG   0.0000
  12 C12          4.3680     2.2015     1.0015 C.2          1    LIG   0.0000
  13 C13          5.0252     3.4613     1.0033 C.2          1    LIG   0.0000
  14 C14          6.3953     3.5153     1.0038 C.2          1    LIG   0.0000
  15 C15          7.1498     2.3118     1.0021 C.2          1    LIG   0.0000
  16 C16          6.4771     1.1180     1.0006 C.2          1    LIG   0.0000
  17 N17          5.1049     1.0426     1.0002 N.pl3        1    LIG   0.0000
  18 C18          4.4442    -0.1628     0.9986 C.2          1    LIG   0.0000
  19 O19          5.0361    -1.2323     0.9971 O.2          1    LIG   0.0000
  20 C20          3.0236    -0.1940     0.9983 C.2          1    LIG   0.0000
  21 C21          2.3034    -1.4534     0.9965 C.2          1    LIG   0.0000
  22 C22          1.9762    -2.0248    -0.1471 C.2          1    LIG   0.0000
  23 S23          2.3273    -1.4653    -1.7453 S.3          1    LIG   0.0000
  24 C24          1.5600    -2.7702    -2.5843 C.2          1    LIG   0.0000
  25 N25          1.3799    -3.1442    -3.8258 N.2          1    LIG   0.0000
  26 C26          0.7136    -4.3290    -3.7731 C.ar         1    LIG   0.0000
  27 C27          0.2874    -5.1398    -4.8191 C.ar         1    LIG   0.0000
  28 C28         -0.3799    -6.3293    -4.5488 C.ar         1    LIG   0.0000
  29 C29         -0.6098    -6.6849    -3.2241 C.ar         1    LIG   0.0000
  30 C30         -0.1681    -5.8456    -2.2049 C.ar         1    LIG   0.0000
  31 C31          0.5030    -4.6501    -2.4484 C.ar         1    LIG   0.0000
  32 N32          1.0507    -3.6443    -1.7000 N.pl3        1    LIG   0.0000
  33 C33          1.2646    -3.2690    -0.3539 C.2          1    LIG   0.0000
  34 O34          0.8720    -3.9461     0.5835 O.2          1    LIG   0.0000
  35 C35          0.1233     2.8327     2.2141 C.ar         1    LIG   0.0000
  36 C36         -0.4767     4.0877     2.2099 C.ar         1    LIG   0.0000
  37 H           -3.2007     6.9052     1.7234 H            1    LIG   0.0000
  38 H           -3.3613     5.3512     1.2482 H            1    LIG   0.0000
  39 H           -2.6258     5.7002     2.6637 H            1    LIG   0.0000
  40 H           -0.9618     7.9767     1.7275 H            1    LIG   0.0000
  41 H           -0.3868     6.7718     2.6677 H            1    LIG   0.0000
  42 H            0.3506     7.1276     1.2549 H            1    LIG   0.0000
  43 H           -2.0799     7.4462    -0.4241 H            1    LIG   0.0000
  44 H           -0.7675     6.5971    -0.8968 H            1    LIG   0.0000
  45 H           -2.2405     5.8922    -0.8994 H            1    LIG   0.0000
  46 H           -0.6935     4.5531    -1.0730 H            1    LIG   0.0000
  47 H            0.3393     2.3898    -1.0694 H            1    LIG   0.0000
  48 H            4.4901     4.3060     1.0042 H            1    LIG   0.0000
  49 H            6.8620     4.3996     1.0053 H            1    LIG   0.0000
  50 H            8.1496     2.3353     1.0021 H            1    LIG   0.0000
  51 H            7.0051     0.2688     0.9997 H            1    LIG   0.0000
  52 H            2.0551    -1.8886     1.8620 H            1    LIG   0.0000
  53 H            0.4608    -4.8675    -5.7656 H            1    LIG   0.0000
  54 H           -0.6895    -6.9193    -5.2946 H            1    LIG   0.0000
  55 H           -1.0880    -7.5355    -3.0056 H            1    LIG   0.0000
  56 H           -0.3402    -6.1129    -1.2568 H            1    LIG   0.0000
  57 H            0.3394     2.3779     3.0780 H            1    LIG   0.0000
  58 H           -0.6943     4.5408     3.0744 H            1    LIG   0.0000
@<TRIPOS>BOND
   1        1        2 1
   2        2        3 1
   3        2        4 1
   4        2        5 1
   5        5        6 ar
   6        6        7 ar
   7        7        8 ar
   8        8        9 1
   9        9       10 1
  10       10       11 1
  11       11       12 2
  12       12       13 1
  13       13       14 2
  14       14       15 1
  15       15       16 2
  16       16       17 1
  17       17       12 1
  18       17       18 1
  19       18       19 2
  20       18       20 1
  21       20       10 2
  22       20       21 1
  23       21       22 2
  24       22       23 1
  25       23       24 1
  26       24       25 2
  27       25       26 1
  28       26       27 ar
  29       27       28 ar
  30       28       29 ar
  31       29       30 ar
  32       30       31 ar
  33       31       26 ar
  34       31       32 1
  35       32       24 1
  36       32       33 1
  37       33       22 1
  38       33       34 2
  39        8       35 ar
  40       35       36 ar
  41       36        5 ar
  42        1       37 1
  43        1       38 1
  44        1       39 1
  45        3       40 1
  46        3       41 1
  47        3       42 1
  48        4       43 1
  49        4       44 1
  50        4       45 1
  51        6       46 1
  52        7       47 1
  53       13       48 1
  54       14       49 1
  55       15       50 1
  56       16       51 1
  57       21       52 1
  58       27       53 1
  59       28       54 1
  60       29       55 1
  61       30       56 1
  62       35       57 1
  63       36       58 1

@<TRIPOS>MOLECULE

  58   63
SMALL
USER_CHARGES
@<TRIPOS>ATOM
   1 C1          -0.5292     7.0782     0.2925 C.3          1    LIG   0.0000
   2 C2          -1.4304     6.0837     1.0060 C.3          1    LIG   0.0000
   3 C3          -2.7681     6.0067     0.2885 C.3          1    LIG   0.0000
   4 C4          -1.6500     6.5372     2.4401 C.3          1    LIG   0.0000
   5 C5          -0.7741     4.7124     1.0031 C.ar         1    LIG   0.0000
   6 C6          -0.4779     4.0981    -0.2090 C.ar         1    LIG   0.0000
   7 C7           0.1218     2.8429    -0.2049 C.ar         1    LIG   0.0000
   8 C8           0.4189     2.2184     1.0018 C.ar         1    LIG   0.0000
   9 O9           1.0000     1.0000     1.0000 O.3          1    LIG   0.0000
  10 C10          2.3499     1.0000     1.0000 C.2          1    LIG   0.0000
  11 N11          3.0469     2.1808     1.0017 N.2          1    LIG   0.0000
  12 C12          4.3680     2.2015     1.0015 C.2          1    LIG   0.0000
  13 C13          5.0252     3.4613     1.0033 C.2          1    LIG   0.0000
  14 C14          6.3953     3.5153     1.0038 C.2          1    LIG   0.0000
  15 C15          7.1498     2.3118     1.0021 C.2          1    LIG   0.0000
  16 C16          6.4771     1.1180     1.0006 C.2          1    LIG   0.0000
  17 N17          5.1049     1.0426     1.0002 N.pl3        1    LIG   0.0000
  18 C18          4.4442    -0.1628     0.9986 C.2          1    LIG   0.0000
  19 O19          5.0361    -1.2323     0.9971 O.2          1    LIG   0.0000
  20 C20          3.0236    -0.1940     0.9983 C.2          1    LIG   0.0000
  21 C21          2.3034    -1.4534     0.9965 C.2          1    LIG   0.0000
  22 C22          2.4718    -2.3112     1.9852 C.2          1    LIG   0.0000
  23 S23          3.4712    -2.1266     3.3844 S.3          1    LIG   0.0000
  24 C24          3.0962    -3.6580     4.0983 C.2          1    LIG   0.0000
  25 N25          3.4059    -4.3153     5.1871 N.2          1    LIG   0.0000
  26 C26          2.7004    -5.4775     5.1432 C.ar         1    LIG   0.0000
  27 C27          2.6739    -6.5196     6.0632 C.ar         1    LIG   0.0000
  28 C28          1.8709    -7.6309     5.8316 C.ar         1    LIG   0.0000
  29 C29          1.1046    -7.6763     4.6719 C.ar         1    LIG   0.0000
  30 C30          1.1593    -6.6130     3.7748 C.ar         1    LIG   0.0000
  31 C31          1.9541    -5.4888     3.9834 C.ar         1    LIG   0.0000
  32 N32          2.2169    -4.3182     3.3260 N.pl3        1    LIG   0.0000
  33 C33          1.8492    -3.6068     2.1610 C.2          1    LIG   0.0000
  34 O34          1.0581    -4.0535     1.3450 O.2          1    LIG   0.0000
  35 C35          0.1233     2.8327     2.2141 C.ar         1    LIG   0.0000
  36 C36         -0.4767     4.0877     2.2099 C.ar         1    LIG   0.0000
  37 H           -0.9609     7.9802     0.2944 H            1    LIG   0.0000
  38 H            0.3509     7.1288     0.7646 H            1    LIG   0.0000
  39 H           -0.3847     6.7798    -0.6509 H            1    LIG   0.0000
  40 H           -3.1998     6.9087     0.2904 H            1    LIG   0.0000
  41 H           -2.6236     5.7083    -0.6550 H            1    LIG   0.0000
  42 H           -3.3610     5.3524     0.7579 H            1    LIG   0.0000
  43 H           -2.0817     7.4392     2.4420 H            1    LIG   0.0000
  44 H           -2.2429     5.8829     2.9095 H            1    LIG   0.0000
  45 H           -0.7699     6.5879     2.9122 H            1    LIG   0.0000
  46 H           -0.6935     4.5531    -1.0730 H            1    LIG   0.0000
  47 H            0.3393     2.3898    -1.0694 H            1    LIG   0.0000
  48 H            4.4901     4.3060     1.0042 H            1    LIG   0.0000
  49 H            6.8620     4.3996     1.0053 H            1    LIG   0.0000
  50 H            8.1496     2.3353     1.0021 H            1    LIG   0.0000
  51 H            7.0051     0.2688     0.9997 H            1    LIG   0.0000
  52 H            1.6795    -1.6716     0.2461 H            1    LIG   0.0000
  53 H            3.2323    -6.4700     6.8913 H            1    LIG   0.0000
  54 H            1.8448    -8.3848     6.4880 H            1    LIG   0.0000
  55 H            0.5198    -8.4654     4.4840 H            1    LIG   0.0000
  56 H            0.6036    -6.6585     2.9447 H            1    LIG   0.0000
  57 H            0.3394     2.3779     3.0780 H            1    LIG   0.0000
  58 H           -0.6943     4.5408     3.0744 H            1    LIG   0.0000
@<TRIPOS>BOND
   1        1        2 1
   2        2        3 1
   3        2        4 1
   4        2        5 1
   5        5        6 ar
   6        6        7 ar
   7        7        8 ar
   8        8        9 1
   9        9       10 1
  10       10       11 1
  11       11       12 2
  12       12       13 1
  13       13       14 2
  14       14       15 1
  15       15       16 2
  16       16       17 1
  17       17       12 1
  18       17       18 1
  19       18       19 2
  20       18       20 1
  21       20       10 2
  22       20       21 1
  23       21       22 2
  24       22       23 1
  25       23       24 1
  26       24       25 2
  27       25       26 1
  28       26       27 ar
  29       27       28 ar
  30       28       29 ar
  31       29       30 ar
  32       30       31 ar
  33       31       26 ar
  34       31       32 1
  35       32       24 1
  36       32       33 1
  37       33       22 1
  38       33       34 2
  39        8       35 ar
  40       35       36 ar
  41       36        5 ar
  42        1       37 1
  43        1       38 1
  44        1       39 1
  45        3       40 1
  46        3       41 1
  47        3       42 1
  48        4       43 1
  49        4       44 1
  50        4       45 1
  51        6       46 1
  52        7       47 1
  53       13       48 1
  54       14       49 1
  55       15       50 1
  56       16       51 1
  57       21       52 1
  58       27       53 1
  59       28       54 1
  60       29       55 1
  61       30       56 1
  62       35       57 1
  63       36       58 1

@<TRIPOS>MOLECULE

  58   63
SMALL
USER_CHARGES
@<TRIPOS>ATOM
   1 C1          -2.7690     6.0032     1.7215 C.3          1    LIG   0.0000
   2 C2          -1.4304     6.0837     1.0060 C.3          1    LIG   0.0000
   3 C3          -0.5301     7.0747     1.7256 C.3          1    LIG   0.0000
   4 C4          -1.6482     6.5442    -0.4260 C.3          1    LIG   0.0000
   5 C5          -0.7741     4.7124     1.0031 C.ar         1    LIG   0.0000
   6 C6          -0.4779     4.0981    -0.2090 C.ar         1    LIG   0.0000
   7 C7           0.1218     2.8429    -0.2049 C.ar         1    LIG   0.0000
   8 C8           0.4189     2.2184     1.0018 C.ar         1    LIG   0.0000
   9 O9           1.0000     1.0000     1.0000 O.3          1    LIG   0.0000
  10 C10          2.3499     1.0000     1.0000 C.2          1    LIG   0.0000
  11 N11          3.0469     2.0235     0.4111 N.2          1    LIG   0.0000
  12 C12          4.3680     2.0413     0.4005 C.2          1    LIG   0.0000
  13 C13          5.0252     3.1331    -0.2278 C.2          1    LIG   0.0000
  14 C14          6.3953     3.1802    -0.2544 C.2          1    LIG   0.0000
  15 C15          7.1498     2.1371     0.3459 C.2          1    LIG   0.0000
  16 C16          6.4771     1.1025     0.9415 C.2          1    LIG   0.0000
  17 N17          5.1049     1.0370     0.9788 N.pl3        1    LIG   0.0000
  18 C18          4.4442    -0.0077     1.5802 C.2          1    LIG   0.0000
  19 O19          5.0361    -0.9346     2.1136 O.2          1    LIG   0.0000
  20 C20          3.0236    -0.0349     1.5955 C.2          1    LIG   0.0000
  21 C21          2.3034    -1.1265     2.2237 C.2          1    LIG   0.0000
  22 C22          2.4718    -1.3750     3.5088 C.2          1    LIG   0.0000
  23 S23          3.4712    -0.5155     4.6282 S.3          1    LIG   0.0000
  24 C24          3.0962    -1.4848     6.0122 C.2          1    LIG   0.0000
  25 N25          3.4059    -1.5096     7.2838 N.2          1    LIG   0.0000
  26 C26          2.7004    -2.5381     7.8269 C.ar         1    LIG   0.0000
  27 C27          2.6739    -2.9806     9.1447 C.ar         1    LIG   0.0000
  28 C28          1.8709    -4.0587     9.4997 C.ar         1    LIG   0.0000
  29 C29          1.1046    -4.6779     8.5181 C.ar         1    LIG   0.0000
  30 C30          1.1593    -4.2056     7.2096 C.ar         1    LIG   0.0000
  31 C31          1.9541    -3.1278     6.8281 C.ar         1    LIG   0.0000
  32 N32          2.2169    -2.4427     5.6734 N.pl3        1    LIG   0.0000
  33 C33          1.8492    -2.4091     4.3088 C.2          1    LIG   0.0000
  34 O34          1.0581    -3.2040     3.8255 O.2          1    LIG   0.0000
  35 C35          0.1233     2.8327     2.2141 C.ar         1    LIG   0.0000
  36 C36         -0.4767     4.0877     2.2099 C.ar         1    LIG   0.0000
  37 H           -3.2007     6.9052     1.7234 H            1    LIG   0.0000
  38 H           -3.3613     5.3512     1.2482 H            1    LIG   0.0000
  39 H           -2.6258     5.7002     2.6637 H            1    LIG   0.0000
  40 H           -0.9618     7.9767     1.7275 H            1    LIG   0.0000
  41 H           -0.3868     6.7718     2.6677 H            1    LIG   0.0000
  42 H            0.3506     7.1276     1.2549 H            1    LIG   0.0000
  43 H           -2.0799     7.4462    -0.4241 H            1    LIG   0.0000
  44 H           -0.7675     6.5971    -0.8968 H            1    LIG   0.0000
  45 H           -2.2405     5.8922    -0.8994 H            1    LIG   0.0000
  46 H           -0.6935     4.5531    -1.0730 H            1    LIG   0.0000
  47 H            0.3393     2.3898    -1.0694 H            1    LIG   0.0000
  48 H            4.4901     3.8652    -0.6494 H            1    LIG   0.0000
  49 H            6.8620     3.9468    -0.6952 H            1    LIG   0.0000
  50 H            8.1496     2.1574     0.3341 H            1    LIG   0.0000
  51 H            7.0051     0.3666     1.3654 H            1    LIG   0.0000
  52 H            1.6795    -1.6906     1.6829 H            1    LIG   0.0000
  53 H            3.2323    -2.5235     9.8370 H            1    LIG   0.0000
  54 H            1.8448    -4.3835    10.4452 H            1    LIG   0.0000
  55 H            0.5198    -5.4552     8.7499 H            1    LIG   0.0000
  56 H            0.6036    -4.6601     6.5134 H            1    LIG   0.0000
  57 H            0.3394     2.3779     3.0780 H            1    LIG   0.0000
  58 H           -0.6943     4.5408     3.0744 H            1    LIG   0.0000
@<TRIPOS>BOND
   1        1        2 1
   2        2        3 1
   3        2        4 1
   4        2        5 1
   5        5        6 ar
   6        6        7 ar
   7        7        8 ar
   8        8        9 1
   9        9       10 1
  10       10       11 1
  11       11       12 2
  12       12       13 1
  13       13       14 2
  14       14       15 1
  15       15       16 2
  16       16       17 1
  17       17       12 1
  18       17       18 1
  19       18       19 2
  20       18       20 1
  21       20       10 2
  22       20       21 1
  23       21       22 2
  24       22       23 1
  25       23       24 1
  26       24       25 2
  27       25       26 1
  28       26       27 ar
  29       27       28 ar
  30       28       29 ar
  31       29       30 ar
  32       30       31 ar
  33       31       26 ar
  34       31       32 1
  35       32       24 1
  36       32       33 1
  37       33       22 1
  38       33       34 2
  39        8       35 ar
  40       35       36 ar
  41       36        5 ar
  42        1       37 1
  43        1       38 1
  44        1       39 1
  45        3       40 1
  46        3       41 1
  47        3       42 1
  48        4       43 1
  49        4       44 1
  50        4       45 1
  51        6       46 1
  52        7       47 1
  53       13       48 1
  54       14       49 1
  55       15       50 1
  56       16       51 1
  57       21       52 1
  58       27       53 1
  59       28       54 1
  60       29       55 1
  61       30       56 1
  62       35       57 1
  63       36       58 1

