@<TRIPOS>MOLECULE
*****
 58 63 0 0 0
SMALL
USER_CHARGES

@<TRIPOS>ATOM
      1 C1         -0.5292    7.0782    0.2925 C.3     1  LIG1        0.0000
      2 C2         -1.4304    6.0837    1.0060 C.3     1  LIG1        0.0000
      3 C3         -2.7681    6.0067    0.2885 C.3     1  LIG1        0.0000
      4 C4         -1.6500    6.5372    2.4401 C.3     1  LIG1        0.0000
      5 C5         -0.7741    4.7124    1.0031 C.3     1  LIG1        0.0000
      6 C6         -0.4779    4.0981   -0.2090 C.3     1  LIG1        0.0000
      7 C7          0.1218    2.8429   -0.2049 C.3     1  LIG1        0.0000
      8 C8          0.4189    2.2184    1.0018 C.3     1  LIG1        0.0000
      9 O9          1.0000    1.0000    1.0000 O.2     1  LIG1        0.0000
     10 C10         2.3499    1.0000    1.0000 C.2     1  LIG1        0.0000
     11 N11         3.0469    2.1808    1.0017 N.2     1  LIG1        0.0000
     12 C12         4.3680    2.2015    1.0015 C.2     1  LIG1        0.0000
     13 C13         5.0252    3.4613    1.0033 C.2     1  LIG1        0.0000
     14 C14         6.3953    3.5153    1.0038 C.2     1  LIG1        0.0000
     15 C15         7.1498    2.3118    1.0021 C.2     1  LIG1        0.0000
     16 C16         6.4771    1.1180    1.0006 C.2     1  LIG1        0.0000
     17 N17         5.1049    1.0426    1.0002 N.am    1  LIG1        0.0000
     18 C18         4.4442   -0.1628    0.9986 C.2     1  LIG1        0.0000
     19 O19         5.0361   -1.2323    0.9971 O.2     1  LIG1        0.0000
     20 C20         3.0236   -0.1940    0.9983 C.2     1  LIG1        0.0000
     21 C21         2.3034   -1.4534    0.9965 C.2     1  LIG1        0.0000
     22 C22         2.4722   -2.3086    0.0057 C.2     1  LIG1        0.0000
     23 S23         3.5141   -2.1444   -1.3646 S.3     1  LIG1        0.0000
     24 C24         3.1122   -3.6584   -2.1007 C.2     1  LIG1        0.0000
     25 N25         3.4673   -4.3386   -3.1613 N.2     1  LIG1        0.0000
     26 C26         2.7762   -5.5093   -3.1111 C.3     1  LIG1        0.0000
     27 C27         2.7997   -6.5774   -4.0008 C.3     1  LIG1        0.0000
     28 C28         2.0131   -7.6987   -3.7615 C.3     1  LIG1        0.0000
     29 C29         1.2108   -7.7267   -2.6258 C.3     1  LIG1        0.0000
     30 C30         1.2146   -6.6368   -1.7596 C.3     1  LIG1        0.0000
     31 C31         1.9933   -5.5028   -1.9757 C.3     1  LIG1        0.0000
     32 N32         2.2196   -4.3131   -1.3392 N.am    1  LIG1        0.0000
     33 C33         1.8497   -3.6037   -0.1737 C.2     1  LIG1        0.0000
     34 O34         1.0503   -4.0481    0.6357 O.2     1  LIG1        0.0000
     35 C35         0.1233    2.8327    2.2141 C.3     1  LIG1        0.0000
     36 C36        -0.4767    4.0877    2.2099 C.3     1  LIG1        0.0000
     37 H          -0.9609    7.9802    0.2944 H       1  LIG1        0.0000
     38 H           0.3509    7.1288    0.7646 H       1  LIG1        0.0000
     39 H          -0.3847    6.7798   -0.6509 H       1  LIG1        0.0000
     40 H          -3.1998    6.9087    0.2904 H       1  LIG1        0.0000
     41 H          -2.6236    5.7083   -0.6550 H       1  LIG1        0.0000
     42 H          -3.3610    5.3524    0.7579 H       1  LIG1        0.0000
     43 H          -2.0817    7.4392    2.4420 H       1  LIG1        0.0000
     44 H          -2.2429    5.8829    2.9095 H       1  LIG1        0.0000
     45 H          -0.7699    6.5879    2.9122 H       1  LIG1        0.0000
     46 H          -0.6935    4.5531   -1.0730 H       1  LIG1        0.0000
     47 H           0.3393    2.3898   -1.0694 H       1  LIG1        0.0000
     48 H           4.4901    4.3060    1.0042 H       1  LIG1        0.0000
     49 H           6.8620    4.3996    1.0053 H       1  LIG1        0.0000
     50 H           8.1496    2.3353    1.0021 H       1  LIG1        0.0000
     51 H           7.0051    0.2688    0.9997 H       1  LIG1        0.0000
     52 H           1.6792   -1.6735    1.7461 H       1  LIG1        0.0000
     53 H           3.3823   -6.5393   -4.8127 H       1  LIG1        0.0000
     54 H           2.0240   -8.4720   -4.3953 H       1  LIG1        0.0000
     55 H           0.6364   -8.5223   -2.4332 H       1  LIG1        0.0000
     56 H           0.6328   -6.6697   -0.9469 H       1  LIG1        0.0000
     57 H           0.3394    2.3779    3.0780 H       1  LIG1        0.0000
     58 H          -0.6943    4.5408    3.0744 H       1  LIG1        0.0000
@<TRIPOS>BOND
     1     1     2    1
     2     2     3    1
     3     2     4    1
     4     2     5    1
     5     5     6   ar
     6     6     7   ar
     7     7     8   ar
     8     8     9    1
     9     9    10    1
    10    10    11    1
    11    11    12    2
    12    12    13    1
    13    13    14    2
    14    14    15    1
    15    15    16    2
    16    16    17    1
    17    17    12    1
    18    17    18   am
    19    18    19    2
    20    18    20    1
    21    20    10    2
    22    20    21    1
    23    21    22    2
    24    22    23    1
    25    23    24    1
    26    24    25    2
    27    25    26    1
    28    26    27   ar
    29    27    28   ar
    30    28    29   ar
    31    29    30   ar
    32    30    31   ar
    33    31    26   ar
    34    31    32    1
    35    32    24    1
    36    32    33   am
    37    33    22    1
    38    33    34    2
    39     8    35   ar
    40    35    36   ar
    41    36     5   ar
    42     1    37    1
    43     1    38    1
    44     1    39    1
    45     3    40    1
    46     3    41    1
    47     3    42    1
    48     4    43    1
    49     4    44    1
    50     4    45    1
    51     6    46    1
    52     7    47    1
    53    13    48    1
    54    14    49    1
    55    15    50    1
    56    16    51    1
    57    21    52    1
    58    27    53    1
    59    28    54    1
    60    29    55    1
    61    30    56    1
    62    35    57    1
    63    36    58    1
