@<TRIPOS>MOLECULE
*****
 58 63 0 0 0
SMALL
USER_CHARGES

@<TRIPOS>ATOM
      1 C1         -2.7690    6.0032    1.7215 C.3     1  LIG1        0.0000
      2 C2         -1.4304    6.0837    1.0060 C.3     1  LIG1        0.0000
      3 C3         -0.5301    7.0747    1.7256 C.3     1  LIG1        0.0000
      4 C4         -1.6482    6.5442   -0.4260 C.3     1  LIG1        0.0000
      5 C5         -0.7741    4.7124    1.0031 C.3     1  LIG1        0.0000
      6 C6         -0.4779    4.0981   -0.2090 C.3     1  LIG1        0.0000
      7 C7          0.1218    2.8429   -0.2049 C.3     1  LIG1        0.0000
      8 C8          0.4189    2.2184    1.0018 C.3     1  LIG1        0.0000
      9 O9          1.0000    1.0000    1.0000 O.2     1  LIG1        0.0000
     10 C10         2.3499    1.0000    1.0000 C.2     1  LIG1        0.0000
     11 N11         3.0469    2.0235    0.4111 N.2     1  LIG1        0.0000
     12 C12         4.3680    2.0413    0.4005 C.2     1  LIG1        0.0000
     13 C13         5.0252    3.1331   -0.2278 C.2     1  LIG1        0.0000
     14 C14         6.3953    3.1802   -0.2544 C.2     1  LIG1        0.0000
     15 C15         7.1498    2.1371    0.3459 C.2     1  LIG1        0.0000
     16 C16         6.4771    1.1025    0.9415 C.2     1  LIG1        0.0000
     17 N17         5.1049    1.0370    0.9788 N.am    1  LIG1        0.0000
     18 C18         4.4442   -0.0077    1.5802 C.2     1  LIG1        0.0000
     19 O19         5.0361   -0.9346    2.1136 O.2     1  LIG1        0.0000
     20 C20         3.0236   -0.0349    1.5955 C.2     1  LIG1        0.0000
     21 C21         2.3034   -1.1265    2.2237 C.2     1  LIG1        0.0000
     22 C22         2.4718   -1.3750    3.5088 C.2     1  LIG1        0.0000
     23 S23         3.4712   -0.5155    4.6282 S.3     1  LIG1        0.0000
     24 C24         3.0962   -1.4848    6.0122 C.2     1  LIG1        0.0000
     25 N25         3.4059   -1.5096    7.2838 N.2     1  LIG1        0.0000
     26 C26         2.7004   -2.5381    7.8269 C.3     1  LIG1        0.0000
     27 C27         2.6739   -2.9806    9.1447 C.3     1  LIG1        0.0000
     28 C28         1.8709   -4.0587    9.4997 C.3     1  LIG1        0.0000
     29 C29         1.1046   -4.6779    8.5181 C.3     1  LIG1        0.0000
     30 C30         1.1593   -4.2056    7.2096 C.3     1  LIG1        0.0000
     31 C31         1.9541   -3.1278    6.8281 C.3     1  LIG1        0.0000
     32 N32         2.2169   -2.4427    5.6734 N.am    1  LIG1        0.0000
     33 C33         1.8492   -2.4091    4.3088 C.2     1  LIG1        0.0000
     34 O34         1.0581   -3.2040    3.8255 O.2     1  LIG1        0.0000
     35 C35         0.1233    2.8327    2.2141 C.3     1  LIG1        0.0000
     36 C36        -0.4767    4.0877    2.2099 C.3     1  LIG1        0.0000
     37 H          -3.2007    6.9052    1.7234 H       1  LIG1        0.0000
     38 H          -3.3613    5.3512    1.2482 H       1  LIG1        0.0000
     39 H          -2.6258    5.7002    2.6637 H       1  LIG1        0.0000
     40 H          -0.9618    7.9767    1.7275 H       1  LIG1        0.0000
     41 H          -0.3868    6.7718    2.6677 H       1  LIG1        0.0000
     42 H           0.3506    7.1276    1.2549 H       1  LIG1        0.0000
     43 H          -2.0799    7.4462   -0.4241 H       1  LIG1        0.0000
     44 H          -0.7675    6.5971   -0.8968 H       1  LIG1        0.0000
     45 H          -2.2405    5.8922   -0.8994 H       1  LIG1        0.0000
     46 H          -0.6935    4.5531   -1.0730 H       1  LIG1        0.0000
     47 H           0.3393    2.3898   -1.0694 H       1  LIG1        0.0000
     48 H           4.4901    3.8652   -0.6494 H       1  LIG1        0.0000
     49 H           6.8620    3.9468   -0.6952 H       1  LIG1        0.0000
     50 H           8.1496    2.1574    0.3341 H       1  LIG1        0.0000
     51 H           7.0051    0.3666    1.3654 H       1  LIG1        0.0000
     52 H           1.6795   -1.6906    1.6829 H       1  LIG1        0.0000
     53 H           3.2323   -2.5235    9.8370 H       1  LIG1        0.0000
     54 H           1.8448   -4.3835   10.4452 H       1  LIG1        0.0000
     55 H           0.5198   -5.4552    8.7499 H       1  LIG1        0.0000
     56 H           0.6036   -4.6601    6.5134 H       1  LIG1        0.0000
     57 H           0.3394    2.3779    3.0780 H       1  LIG1        0.0000
     58 H          -0.6943    4.5408    3.0744 H       1  LIG1        0.0000
@<TRIPOS>BOND
     1     1     2    1
     2     2     3    1
     3     2     4    1
     4     2     5    1
     5     5     6   ar
     6     6     7   ar
     7     7     8   ar
     8     8     9    1
     9     9    10    1
    10    10    11    1
    11    11    12    2
    12    12    13    1
    13    13    14    2
    14    14    15    1
    15    15    16    2
    16    16    17    1
    17    17    12    1
    18    17    18   am
    19    18    19    2
    20    18    20    1
    21    20    10    2
    22    20    21    1
    23    21    22    2
    24    22    23    1
    25    23    24    1
    26    24    25    2
    27    25    26    1
    28    26    27   ar
    29    27    28   ar
    30    28    29   ar
    31    29    30   ar
    32    30    31   ar
    33    31    26   ar
    34    31    32    1
    35    32    24    1
    36    32    33   am
    37    33    22    1
    38    33    34    2
    39     8    35   ar
    40    35    36   ar
    41    36     5   ar
    42     1    37    1
    43     1    38    1
    44     1    39    1
    45     3    40    1
    46     3    41    1
    47     3    42    1
    48     4    43    1
    49     4    44    1
    50     4    45    1
    51     6    46    1
    52     7    47    1
    53    13    48    1
    54    14    49    1
    55    15    50    1
    56    16    51    1
    57    21    52    1
    58    27    53    1
    59    28    54    1
    60    29    55    1
    61    30    56    1
    62    35    57    1
    63    36    58    1
