@<TRIPOS>MOLECULE
*****
 58 63 0 0 0
SMALL
USER_CHARGES

@<TRIPOS>ATOM
      1 C1         -0.9984    6.8470    2.2560 C.3     1  LIG1        0.0000
      2 C2         -1.4270    6.0853    1.0124 C.3     1  LIG1        0.0000
      3 C3         -0.9975    6.8546   -0.2262 C.3     1  LIG1        0.0000
      4 C4         -2.9387    5.9266    1.0114 C.3     1  LIG1        0.0000
      5 C5         -0.7734    4.7128    1.0084 C.3     1  LIG1        0.0000
      6 C6         -1.5724    3.5743    1.0047 C.3     1  LIG1        0.0000
      7 C7         -0.9682    2.3213    1.0019 C.3     1  LIG1        0.0000
      8 C8          0.4189    2.2184    1.0018 C.3     1  LIG1        0.0000
      9 O9          1.0000    1.0000    1.0000 O.2     1  LIG1        0.0000
     10 C10         2.3499    1.0000    1.0000 C.2     1  LIG1        0.0000
     11 N11         3.0469    0.9983    2.1808 N.2     1  LIG1        0.0000
     12 C12         4.3680    0.9985    2.2015 C.2     1  LIG1        0.0000
     13 C13         5.0252    0.9967    3.4613 C.2     1  LIG1        0.0000
     14 C14         6.3953    0.9962    3.5153 C.2     1  LIG1        0.0000
     15 C15         7.1498    0.9979    2.3118 C.2     1  LIG1        0.0000
     16 C16         6.4771    0.9994    1.1180 C.2     1  LIG1        0.0000
     17 N17         5.1049    0.9998    1.0426 N.am    1  LIG1        0.0000
     18 C18         4.4442    1.0014   -0.1628 C.2     1  LIG1        0.0000
     19 O19         5.0361    1.0029   -1.2323 O.2     1  LIG1        0.0000
     20 C20         3.0236    1.0017   -0.1940 C.2     1  LIG1        0.0000
     21 C21         2.3034    1.0035   -1.4534 C.2     1  LIG1        0.0000
     22 C22         1.9762    2.1471   -2.0248 C.2     1  LIG1        0.0000
     23 S23         2.3273    3.7453   -1.4653 S.3     1  LIG1        0.0000
     24 C24         1.5600    4.5843   -2.7702 C.2     1  LIG1        0.0000
     25 N25         1.3799    5.8258   -3.1442 N.2     1  LIG1        0.0000
     26 C26         0.7136    5.7731   -4.3290 C.3     1  LIG1        0.0000
     27 C27         0.2874    6.8191   -5.1398 C.3     1  LIG1        0.0000
     28 C28        -0.3799    6.5488   -6.3293 C.3     1  LIG1        0.0000
     29 C29        -0.6098    5.2241   -6.6849 C.3     1  LIG1        0.0000
     30 C30        -0.1681    4.2049   -5.8456 C.3     1  LIG1        0.0000
     31 C31         0.5030    4.4484   -4.6501 C.3     1  LIG1        0.0000
     32 N32         1.0507    3.7000   -3.6443 N.am    1  LIG1        0.0000
     33 C33         1.2646    2.3539   -3.2690 C.2     1  LIG1        0.0000
     34 O34         0.8720    1.4165   -3.9461 O.2     1  LIG1        0.0000
     35 C35         1.2181    3.3567    1.0050 C.3     1  LIG1        0.0000
     36 C36         0.6138    4.6096    1.0080 C.3     1  LIG1        0.0000
     37 H          -1.4283    7.7499    2.2586 H       1  LIG1        0.0000
     38 H          -1.2809    6.3409    3.0708 H       1  LIG1        0.0000
     39 H          -0.0038    6.9514    2.2566 H       1  LIG1        0.0000
     40 H          -1.4275    7.7574   -0.2236 H       1  LIG1        0.0000
     41 H          -0.0030    6.9590   -0.2255 H       1  LIG1        0.0000
     42 H          -1.2795    6.3534   -1.0443 H       1  LIG1        0.0000
     43 H          -3.3687    6.8294    1.0140 H       1  LIG1        0.0000
     44 H          -3.2207    5.4254    0.1933 H       1  LIG1        0.0000
     45 H          -3.2213    5.4204    1.8263 H       1  LIG1        0.0000
     46 H          -2.5691    3.6555    1.0040 H       1  LIG1        0.0000
     47 H          -1.5310    1.4947    1.0000 H       1  LIG1        0.0000
     48 H           4.4901    0.9958    4.3060 H       1  LIG1        0.0000
     49 H           6.8620    0.9947    4.3996 H       1  LIG1        0.0000
     50 H           8.1496    0.9979    2.3353 H       1  LIG1        0.0000
     51 H           7.0051    1.0003    0.2688 H       1  LIG1        0.0000
     52 H           2.0551    0.1380   -1.8886 H       1  LIG1        0.0000
     53 H           0.4608    7.7656   -4.8675 H       1  LIG1        0.0000
     54 H          -0.6895    7.2946   -6.9193 H       1  LIG1        0.0000
     55 H          -1.0880    5.0056   -7.5355 H       1  LIG1        0.0000
     56 H          -0.3402    3.2568   -6.1129 H       1  LIG1        0.0000
     57 H           2.2148    3.2754    1.0050 H       1  LIG1        0.0000
     58 H           1.1766    5.4362    1.0100 H       1  LIG1        0.0000
@<TRIPOS>BOND
     1     1     2    1
     2     2     3    1
     3     2     4    1
     4     2     5    1
     5     5     6   ar
     6     6     7   ar
     7     7     8   ar
     8     8     9    1
     9     9    10    1
    10    10    11    1
    11    11    12    2
    12    12    13    1
    13    13    14    2
    14    14    15    1
    15    15    16    2
    16    16    17    1
    17    17    12    1
    18    17    18   am
    19    18    19    2
    20    18    20    1
    21    20    10    2
    22    20    21    1
    23    21    22    2
    24    22    23    1
    25    23    24    1
    26    24    25    2
    27    25    26    1
    28    26    27   ar
    29    27    28   ar
    30    28    29   ar
    31    29    30   ar
    32    30    31   ar
    33    31    26   ar
    34    31    32    1
    35    32    24    1
    36    32    33   am
    37    33    22    1
    38    33    34    2
    39     8    35   ar
    40    35    36   ar
    41    36     5   ar
    42     1    37    1
    43     1    38    1
    44     1    39    1
    45     3    40    1
    46     3    41    1
    47     3    42    1
    48     4    43    1
    49     4    44    1
    50     4    45    1
    51     6    46    1
    52     7    47    1
    53    13    48    1
    54    14    49    1
    55    15    50    1
    56    16    51    1
    57    21    52    1
    58    27    53    1
    59    28    54    1
    60    29    55    1
    61    30    56    1
    62    35    57    1
    63    36    58    1
