@<TRIPOS>MOLECULE
*****
 58 63 0 0 0
SMALL
USER_CHARGES

@<TRIPOS>ATOM
      1 C1         -0.5292    7.0782    0.2925 C.3     1  LIG1        0.0000
      2 C2         -1.4304    6.0837    1.0060 C.3     1  LIG1        0.0000
      3 C3         -2.7681    6.0067    0.2885 C.3     1  LIG1        0.0000
      4 C4         -1.6500    6.5372    2.4401 C.3     1  LIG1        0.0000
      5 C5         -0.7741    4.7124    1.0031 C.3     1  LIG1        0.0000
      6 C6         -0.4779    4.0981   -0.2090 C.3     1  LIG1        0.0000
      7 C7          0.1218    2.8429   -0.2049 C.3     1  LIG1        0.0000
      8 C8          0.4189    2.2184    1.0018 C.3     1  LIG1        0.0000
      9 O9          1.0000    1.0000    1.0000 O.2     1  LIG1        0.0000
     10 C10         2.3499    1.0000    1.0000 C.2     1  LIG1        0.0000
     11 N11         3.0469    1.5889    2.0235 N.2     1  LIG1        0.0000
     12 C12         4.3680    1.5995    2.0413 C.2     1  LIG1        0.0000
     13 C13         5.0252    2.2278    3.1331 C.2     1  LIG1        0.0000
     14 C14         6.3953    2.2544    3.1802 C.2     1  LIG1        0.0000
     15 C15         7.1498    1.6541    2.1371 C.2     1  LIG1        0.0000
     16 C16         6.4771    1.0585    1.1025 C.2     1  LIG1        0.0000
     17 N17         5.1049    1.0212    1.0370 N.am    1  LIG1        0.0000
     18 C18         4.4442    0.4198   -0.0077 C.2     1  LIG1        0.0000
     19 O19         5.0361   -0.1136   -0.9346 O.2     1  LIG1        0.0000
     20 C20         3.0236    0.4045   -0.0349 C.2     1  LIG1        0.0000
     21 C21         2.3034   -0.2237   -1.1265 C.2     1  LIG1        0.0000
     22 C22         1.9762    0.4810   -2.1931 C.2     1  LIG1        0.0000
     23 S23         2.3273    2.1448   -2.5077 S.3     1  LIG1        0.0000
     24 C24         1.5600    2.2190   -4.0573 C.2     1  LIG1        0.0000
     25 N25         1.3799    3.1072   -5.0018 N.2     1  LIG1        0.0000
     26 C26         0.7136    2.4691   -6.0016 C.3     1  LIG1        0.0000
     27 C27         0.2874    2.9696   -7.2268 C.3     1  LIG1        0.0000
     28 C28        -0.3799    2.1408   -8.1218 C.3     1  LIG1        0.0000
     29 C29        -0.6098    0.8157   -7.7673 C.3     1  LIG1        0.0000
     30 C30        -0.1681    0.3527   -6.5309 C.3     1  LIG1        0.0000
     31 C31         0.5030    1.1614   -5.6173 C.3     1  LIG1        0.0000
     32 N32         1.0507    1.0161   -4.3720 N.am    1  LIG1        0.0000
     33 C33         1.2646    0.0381   -3.3740 C.2     1  LIG1        0.0000
     34 O34         0.8720   -1.1124   -3.4916 O.2     1  LIG1        0.0000
     35 C35         0.1233    2.8327    2.2141 C.3     1  LIG1        0.0000
     36 C36        -0.4767    4.0877    2.2099 C.3     1  LIG1        0.0000
     37 H          -0.9609    7.9802    0.2944 H       1  LIG1        0.0000
     38 H           0.3509    7.1288    0.7646 H       1  LIG1        0.0000
     39 H          -0.3847    6.7798   -0.6509 H       1  LIG1        0.0000
     40 H          -3.1998    6.9087    0.2904 H       1  LIG1        0.0000
     41 H          -2.6236    5.7083   -0.6550 H       1  LIG1        0.0000
     42 H          -3.3610    5.3524    0.7579 H       1  LIG1        0.0000
     43 H          -2.0817    7.4392    2.4420 H       1  LIG1        0.0000
     44 H          -2.2429    5.8829    2.9095 H       1  LIG1        0.0000
     45 H          -0.7699    6.5879    2.9122 H       1  LIG1        0.0000
     46 H          -0.6935    4.5531   -1.0730 H       1  LIG1        0.0000
     47 H           0.3393    2.3898   -1.0694 H       1  LIG1        0.0000
     48 H           4.4901    2.6494    3.8652 H       1  LIG1        0.0000
     49 H           6.8620    2.6952    3.9468 H       1  LIG1        0.0000
     50 H           8.1496    1.6659    2.1574 H       1  LIG1        0.0000
     51 H           7.0051    0.6346    0.3666 H       1  LIG1        0.0000
     52 H           2.0551   -1.1908   -1.0706 H       1  LIG1        0.0000
     53 H           0.4608    3.9254   -7.4642 H       1  LIG1        0.0000
     54 H          -0.6895    2.4916   -9.0056 H       1  LIG1        0.0000
     55 H          -1.0880    0.2012   -8.3948 H       1  LIG1        0.0000
     56 H          -0.3402   -0.6020   -6.2884 H       1  LIG1        0.0000
     57 H           0.3394    2.3779    3.0780 H       1  LIG1        0.0000
     58 H          -0.6943    4.5408    3.0744 H       1  LIG1        0.0000
@<TRIPOS>BOND
     1     1     2    1
     2     2     3    1
     3     2     4    1
     4     2     5    1
     5     5     6   ar
     6     6     7   ar
     7     7     8   ar
     8     8     9    1
     9     9    10    1
    10    10    11    1
    11    11    12    2
    12    12    13    1
    13    13    14    2
    14    14    15    1
    15    15    16    2
    16    16    17    1
    17    17    12    1
    18    17    18   am
    19    18    19    2
    20    18    20    1
    21    20    10    2
    22    20    21    1
    23    21    22    2
    24    22    23    1
    25    23    24    1
    26    24    25    2
    27    25    26    1
    28    26    27   ar
    29    27    28   ar
    30    28    29   ar
    31    29    30   ar
    32    30    31   ar
    33    31    26   ar
    34    31    32    1
    35    32    24    1
    36    32    33   am
    37    33    22    1
    38    33    34    2
    39     8    35   ar
    40    35    36   ar
    41    36     5   ar
    42     1    37    1
    43     1    38    1
    44     1    39    1
    45     3    40    1
    46     3    41    1
    47     3    42    1
    48     4    43    1
    49     4    44    1
    50     4    45    1
    51     6    46    1
    52     7    47    1
    53    13    48    1
    54    14    49    1
    55    15    50    1
    56    16    51    1
    57    21    52    1
    58    27    53    1
    59    28    54    1
    60    29    55    1
    61    30    56    1
    62    35    57    1
    63    36    58    1
