@<TRIPOS>MOLECULE
*****
 58 63 0 0 0
SMALL
USER_CHARGES

@<TRIPOS>ATOM
      1 C1         -2.2913    6.2384   -0.2285 C.3     1  LIG1        0.0000
      2 C2         -1.4270    6.0853    1.0124 C.3     1  LIG1        0.0000
      3 C3         -2.2922    6.2308    2.2536 C.3     1  LIG1        0.0000
      4 C4         -0.3510    7.1589    1.0161 C.3     1  LIG1        0.0000
      5 C5         -0.7734    4.7128    1.0084 C.3     1  LIG1        0.0000
      6 C6         -1.5724    3.5743    1.0047 C.3     1  LIG1        0.0000
      7 C7         -0.9682    2.3213    1.0019 C.3     1  LIG1        0.0000
      8 C8          0.4189    2.2184    1.0018 C.3     1  LIG1        0.0000
      9 O9          1.0000    1.0000    1.0000 O.2     1  LIG1        0.0000
     10 C10         2.3499    1.0000    1.0000 C.2     1  LIG1        0.0000
     11 N11         3.0469    0.9983    2.1808 N.2     1  LIG1        0.0000
     12 C12         4.3680    0.9985    2.2015 C.2     1  LIG1        0.0000
     13 C13         5.0252    0.9967    3.4613 C.2     1  LIG1        0.0000
     14 C14         6.3953    0.9962    3.5153 C.2     1  LIG1        0.0000
     15 C15         7.1498    0.9979    2.3118 C.2     1  LIG1        0.0000
     16 C16         6.4771    0.9994    1.1180 C.2     1  LIG1        0.0000
     17 N17         5.1049    0.9998    1.0426 N.am    1  LIG1        0.0000
     18 C18         4.4442    1.0014   -0.1628 C.2     1  LIG1        0.0000
     19 O19         5.0361    1.0029   -1.2323 O.2     1  LIG1        0.0000
     20 C20         3.0236    1.0017   -0.1940 C.2     1  LIG1        0.0000
     21 C21         2.3034    1.0035   -1.4534 C.2     1  LIG1        0.0000
     22 C22         2.4722    1.9943   -2.3086 C.2     1  LIG1        0.0000
     23 S23         3.5141    3.3646   -2.1444 S.3     1  LIG1        0.0000
     24 C24         3.1122    4.1007   -3.6584 C.2     1  LIG1        0.0000
     25 N25         3.4673    5.1613   -4.3386 N.2     1  LIG1        0.0000
     26 C26         2.7762    5.1111   -5.5093 C.3     1  LIG1        0.0000
     27 C27         2.7997    6.0008   -6.5774 C.3     1  LIG1        0.0000
     28 C28         2.0131    5.7615   -7.6987 C.3     1  LIG1        0.0000
     29 C29         1.2108    4.6258   -7.7267 C.3     1  LIG1        0.0000
     30 C30         1.2146    3.7596   -6.6368 C.3     1  LIG1        0.0000
     31 C31         1.9933    3.9757   -5.5028 C.3     1  LIG1        0.0000
     32 N32         2.2196    3.3392   -4.3131 N.am    1  LIG1        0.0000
     33 C33         1.8497    2.1737   -3.6037 C.2     1  LIG1        0.0000
     34 O34         1.0503    1.3643   -4.0481 O.2     1  LIG1        0.0000
     35 C35         1.2181    3.3567    1.0050 C.3     1  LIG1        0.0000
     36 C36         0.6138    4.6096    1.0080 C.3     1  LIG1        0.0000
     37 H          -2.7213    7.1413   -0.2259 H       1  LIG1        0.0000
     38 H          -1.7221    6.1427   -1.0451 H       1  LIG1        0.0000
     39 H          -2.9992    5.5321   -0.2309 H       1  LIG1        0.0000
     40 H          -2.7222    7.1337    2.2562 H       1  LIG1        0.0000
     41 H          -3.0001    5.5245    2.2512 H       1  LIG1        0.0000
     42 H          -1.7235    6.1301    3.0700 H       1  LIG1        0.0000
     43 H          -0.7810    8.0617    1.0187 H       1  LIG1        0.0000
     44 H           0.2176    7.0581    1.8324 H       1  LIG1        0.0000
     45 H           0.2182    7.0631    0.1995 H       1  LIG1        0.0000
     46 H          -2.5691    3.6555    1.0040 H       1  LIG1        0.0000
     47 H          -1.5310    1.4947    1.0000 H       1  LIG1        0.0000
     48 H           4.4901    0.9958    4.3060 H       1  LIG1        0.0000
     49 H           6.8620    0.9947    4.3996 H       1  LIG1        0.0000
     50 H           8.1496    0.9979    2.3353 H       1  LIG1        0.0000
     51 H           7.0051    1.0003    0.2688 H       1  LIG1        0.0000
     52 H           1.6792    0.2539   -1.6735 H       1  LIG1        0.0000
     53 H           3.3823    6.8127   -6.5393 H       1  LIG1        0.0000
     54 H           2.0240    6.3953   -8.4720 H       1  LIG1        0.0000
     55 H           0.6364    4.4332   -8.5223 H       1  LIG1        0.0000
     56 H           0.6328    2.9469   -6.6697 H       1  LIG1        0.0000
     57 H           2.2148    3.2754    1.0050 H       1  LIG1        0.0000
     58 H           1.1766    5.4362    1.0100 H       1  LIG1        0.0000
@<TRIPOS>BOND
     1     1     2    1
     2     2     3    1
     3     2     4    1
     4     2     5    1
     5     5     6   ar
     6     6     7   ar
     7     7     8   ar
     8     8     9    1
     9     9    10    1
    10    10    11    1
    11    11    12    2
    12    12    13    1
    13    13    14    2
    14    14    15    1
    15    15    16    2
    16    16    17    1
    17    17    12    1
    18    17    18   am
    19    18    19    2
    20    18    20    1
    21    20    10    2
    22    20    21    1
    23    21    22    2
    24    22    23    1
    25    23    24    1
    26    24    25    2
    27    25    26    1
    28    26    27   ar
    29    27    28   ar
    30    28    29   ar
    31    29    30   ar
    32    30    31   ar
    33    31    26   ar
    34    31    32    1
    35    32    24    1
    36    32    33   am
    37    33    22    1
    38    33    34    2
    39     8    35   ar
    40    35    36   ar
    41    36     5   ar
    42     1    37    1
    43     1    38    1
    44     1    39    1
    45     3    40    1
    46     3    41    1
    47     3    42    1
    48     4    43    1
    49     4    44    1
    50     4    45    1
    51     6    46    1
    52     7    47    1
    53    13    48    1
    54    14    49    1
    55    15    50    1
    56    16    51    1
    57    21    52    1
    58    27    53    1
    59    28    54    1
    60    29    55    1
    61    30    56    1
    62    35    57    1
    63    36    58    1
