@<TRIPOS>MOLECULE
*****
 58 63 0 0 0
SMALL
USER_CHARGES

@<TRIPOS>ATOM
      1 C1         -2.2913    6.2384   -0.2285 C.3     1  LIG1        0.0000
      2 C2         -1.4270    6.0853    1.0124 C.3     1  LIG1        0.0000
      3 C3         -2.2922    6.2308    2.2536 C.3     1  LIG1        0.0000
      4 C4         -0.3510    7.1589    1.0161 C.3     1  LIG1        0.0000
      5 C5         -0.7734    4.7128    1.0084 C.3     1  LIG1        0.0000
      6 C6         -1.5724    3.5743    1.0047 C.3     1  LIG1        0.0000
      7 C7         -0.9682    2.3213    1.0019 C.3     1  LIG1        0.0000
      8 C8          0.4189    2.2184    1.0018 C.3     1  LIG1        0.0000
      9 O9          1.0000    1.0000    1.0000 O.2     1  LIG1        0.0000
     10 C10         2.3499    1.0000    1.0000 C.2     1  LIG1        0.0000
     11 N11         3.0469    0.4111   -0.0235 N.2     1  LIG1        0.0000
     12 C12         4.3680    0.4005   -0.0413 C.2     1  LIG1        0.0000
     13 C13         5.0252   -0.2278   -1.1331 C.2     1  LIG1        0.0000
     14 C14         6.3953   -0.2544   -1.1802 C.2     1  LIG1        0.0000
     15 C15         7.1498    0.3459   -0.1371 C.2     1  LIG1        0.0000
     16 C16         6.4771    0.9415    0.8975 C.2     1  LIG1        0.0000
     17 N17         5.1049    0.9788    0.9630 N.am    1  LIG1        0.0000
     18 C18         4.4442    1.5802    2.0077 C.2     1  LIG1        0.0000
     19 O19         5.0361    2.1136    2.9346 O.2     1  LIG1        0.0000
     20 C20         3.0236    1.5955    2.0349 C.2     1  LIG1        0.0000
     21 C21         2.3034    2.2237    3.1265 C.2     1  LIG1        0.0000
     22 C22         1.9762    1.5190    4.1931 C.2     1  LIG1        0.0000
     23 S23         2.3273   -0.1448    4.5077 S.3     1  LIG1        0.0000
     24 C24         1.5600   -0.2190    6.0573 C.2     1  LIG1        0.0000
     25 N25         1.3799   -1.1072    7.0018 N.2     1  LIG1        0.0000
     26 C26         0.7136   -0.4691    8.0016 C.3     1  LIG1        0.0000
     27 C27         0.2874   -0.9696    9.2268 C.3     1  LIG1        0.0000
     28 C28        -0.3799   -0.1408   10.1218 C.3     1  LIG1        0.0000
     29 C29        -0.6098    1.1843    9.7673 C.3     1  LIG1        0.0000
     30 C30        -0.1681    1.6473    8.5309 C.3     1  LIG1        0.0000
     31 C31         0.5030    0.8386    7.6173 C.3     1  LIG1        0.0000
     32 N32         1.0507    0.9839    6.3720 N.am    1  LIG1        0.0000
     33 C33         1.2646    1.9619    5.3740 C.2     1  LIG1        0.0000
     34 O34         0.8720    3.1124    5.4916 O.2     1  LIG1        0.0000
     35 C35         1.2181    3.3567    1.0050 C.3     1  LIG1        0.0000
     36 C36         0.6138    4.6096    1.0080 C.3     1  LIG1        0.0000
     37 H          -2.7213    7.1413   -0.2259 H       1  LIG1        0.0000
     38 H          -1.7221    6.1427   -1.0451 H       1  LIG1        0.0000
     39 H          -2.9992    5.5321   -0.2309 H       1  LIG1        0.0000
     40 H          -2.7222    7.1337    2.2562 H       1  LIG1        0.0000
     41 H          -3.0001    5.5245    2.2512 H       1  LIG1        0.0000
     42 H          -1.7235    6.1301    3.0700 H       1  LIG1        0.0000
     43 H          -0.7810    8.0617    1.0187 H       1  LIG1        0.0000
     44 H           0.2176    7.0581    1.8324 H       1  LIG1        0.0000
     45 H           0.2182    7.0631    0.1995 H       1  LIG1        0.0000
     46 H          -2.5691    3.6555    1.0040 H       1  LIG1        0.0000
     47 H          -1.5310    1.4947    1.0000 H       1  LIG1        0.0000
     48 H           4.4901   -0.6494   -1.8652 H       1  LIG1        0.0000
     49 H           6.8620   -0.6952   -1.9468 H       1  LIG1        0.0000
     50 H           8.1496    0.3341   -0.1574 H       1  LIG1        0.0000
     51 H           7.0051    1.3654    1.6334 H       1  LIG1        0.0000
     52 H           2.0551    3.1908    3.0706 H       1  LIG1        0.0000
     53 H           0.4608   -1.9254    9.4642 H       1  LIG1        0.0000
     54 H          -0.6895   -0.4916   11.0056 H       1  LIG1        0.0000
     55 H          -1.0880    1.7988   10.3948 H       1  LIG1        0.0000
     56 H          -0.3402    2.6020    8.2884 H       1  LIG1        0.0000
     57 H           2.2148    3.2754    1.0050 H       1  LIG1        0.0000
     58 H           1.1766    5.4362    1.0100 H       1  LIG1        0.0000
@<TRIPOS>BOND
     1     1     2    1
     2     2     3    1
     3     2     4    1
     4     2     5    1
     5     5     6   ar
     6     6     7   ar
     7     7     8   ar
     8     8     9    1
     9     9    10    1
    10    10    11    1
    11    11    12    2
    12    12    13    1
    13    13    14    2
    14    14    15    1
    15    15    16    2
    16    16    17    1
    17    17    12    1
    18    17    18   am
    19    18    19    2
    20    18    20    1
    21    20    10    2
    22    20    21    1
    23    21    22    2
    24    22    23    1
    25    23    24    1
    26    24    25    2
    27    25    26    1
    28    26    27   ar
    29    27    28   ar
    30    28    29   ar
    31    29    30   ar
    32    30    31   ar
    33    31    26   ar
    34    31    32    1
    35    32    24    1
    36    32    33   am
    37    33    22    1
    38    33    34    2
    39     8    35   ar
    40    35    36   ar
    41    36     5   ar
    42     1    37    1
    43     1    38    1
    44     1    39    1
    45     3    40    1
    46     3    41    1
    47     3    42    1
    48     4    43    1
    49     4    44    1
    50     4    45    1
    51     6    46    1
    52     7    47    1
    53    13    48    1
    54    14    49    1
    55    15    50    1
    56    16    51    1
    57    21    52    1
    58    27    53    1
    59    28    54    1
    60    29    55    1
    61    30    56    1
    62    35    57    1
    63    36    58    1
