@<TRIPOS>MOLECULE

  24   24
SMALL
USER_CHARGES
@<TRIPOS>ATOM
   1 C1          -0.6339     2.3969     2.2411 C.3          1    LIG   0.0000
   2 C2           0.2400     2.3164     1.0000 C.3          1    LIG   0.0000
   3 C3           1.0000     1.0000     1.0000 C.2          1    LIG   0.0000
   4 C4           2.3000     1.0000     1.0000 C.2          1    LIG   0.0000
   5 S5           3.2050     2.5675     1.0000 S.o          1    LIG   0.0000
   6 O6           4.0616     2.6464    -0.2166 O.2          1    LIG   0.0000
   7 C7           4.2049     2.6596     2.4200 C.ar         1    LIG   0.0000
   8 C8           3.6996     3.2181     3.5885 C.ar         1    LIG   0.0000
   9 C9           4.4975     3.2920     4.7258 C.ar         1    LIG   0.0000
  10 C10          5.7984     2.8029     4.6752 C.ar         1    LIG   0.0000
  11 Cl11         6.8266     2.8948     6.1259 Cl           1    LIG   0.0000
  12 C12          6.2985     2.2464     3.5036 C.ar         1    LIG   0.0000
  13 Cl13         7.9668     1.6271     3.4625 Cl           1    LIG   0.0000
  14 C14          5.5050     2.1691     2.3638 C.ar         1    LIG   0.0000
  15 H           -1.1339     3.2629     2.2411 H            1    LIG   0.0000
  16 H           -1.2837     1.6368     2.2411 H            1    LIG   0.0000
  17 H           -0.0590     2.3439     3.0576 H            1    LIG   0.0000
  18 H           -0.3349     2.3693     0.1835 H            1    LIG   0.0000
  19 H            0.8898     3.0764     1.0000 H            1    LIG   0.0000
  20 H            0.5000     0.1340     1.0000 H            1    LIG   0.0000
  21 H            2.8000     0.1340     1.0000 H            1    LIG   0.0000
  22 H            2.7627     3.5668     3.6115 H            1    LIG   0.0000
  23 H            4.1398     3.6919     5.5697 H            1    LIG   0.0000
  24 H            5.8625     1.7684     1.5202 H            1    LIG   0.0000
@<TRIPOS>BOND
   1        1        2 1
   2        2        3 1
   3        3        4 2
   4        4        5 1
   5        5        6 2
   6        5        7 1
   7        7        8 ar
   8        8        9 ar
   9        9       10 ar
  10       10       11 1
  11       10       12 ar
  12       12       13 1
  13       12       14 ar
  14       14        7 ar
  15        1       15 1
  16        1       16 1
  17        1       17 1
  18        2       18 1
  19        2       19 1
  20        3       20 1
  21        4       21 1
  22        8       22 1
  23        9       23 1
  24       14       24 1

@<TRIPOS>MOLECULE

  24   24
SMALL
USER_CHARGES
@<TRIPOS>ATOM
   1 C1          -0.6339     2.3969     2.2411 C.3          1    LIG   0.0000
   2 C2           0.2400     2.3164     1.0000 C.3          1    LIG   0.0000
   3 C3           1.0000     1.0000     1.0000 C.2          1    LIG   0.0000
   4 C4           2.3000     1.0000     1.0000 C.2          1    LIG   0.0000
   5 S5           3.2050     2.5675     1.0000 S.o          1    LIG   0.0000
   6 O6           4.0616     2.6464    -0.2166 O.2          1    LIG   0.0000
   7 C7           4.2049     2.6596     2.4200 C.ar         1    LIG   0.0000
   8 C8           5.5071     2.1746     2.3835 C.ar         1    LIG   0.0000
   9 C9           6.3090     2.2481     3.5180 C.ar         1    LIG   0.0000
  10 C10          5.7907     2.8094     4.6802 C.ar         1    LIG   0.0000
  11 Cl11         6.8098     2.9061     6.1370 Cl           1    LIG   0.0000
  12 C12          4.4874     3.2918     4.7111 C.ar         1    LIG   0.0000
  13 Cl13         3.8456     4.0057     6.2100 Cl           1    LIG   0.0000
  14 C14          3.6816     3.2218     3.5794 C.ar         1    LIG   0.0000
  15 H           -1.1339     3.2629     2.2411 H            1    LIG   0.0000
  16 H           -1.2837     1.6368     2.2411 H            1    LIG   0.0000
  17 H           -0.0590     2.3439     3.0576 H            1    LIG   0.0000
  18 H           -0.3349     2.3693     0.1835 H            1    LIG   0.0000
  19 H            0.8898     3.0764     1.0000 H            1    LIG   0.0000
  20 H            0.5000     0.1340     1.0000 H            1    LIG   0.0000
  21 H            2.8000     0.1340     1.0000 H            1    LIG   0.0000
  22 H            5.8676     1.7728     1.5417 H            1    LIG   0.0000
  23 H            7.2468     1.9016     3.4981 H            1    LIG   0.0000
  24 H            2.7440     3.5690     3.5992 H            1    LIG   0.0000
@<TRIPOS>BOND
   1        1        2 1
   2        2        3 1
   3        3        4 2
   4        4        5 1
   5        5        6 2
   6        5        7 1
   7        7        8 ar
   8        8        9 ar
   9        9       10 ar
  10       10       11 1
  11       10       12 ar
  12       12       13 1
  13       12       14 ar
  14       14        7 ar
  15        1       15 1
  16        1       16 1
  17        1       17 1
  18        2       18 1
  19        2       19 1
  20        3       20 1
  21        4       21 1
  22        8       22 1
  23        9       23 1
  24       14       24 1

@<TRIPOS>MOLECULE

  24   24
SMALL
USER_CHARGES
@<TRIPOS>ATOM
   1 C1          -0.6339     2.3969     2.2411 C.3          1    LIG   0.0000
   2 C2           0.2400     2.3164     1.0000 C.3          1    LIG   0.0000
   3 C3           1.0000     1.0000     1.0000 C.2          1    LIG   0.0000
   4 C4           2.3000     1.0000     1.0000 C.2          1    LIG   0.0000
   5 S5           3.2050     2.5675     1.0000 S.o          1    LIG   0.0000
   6 O6           2.8450     3.3488     2.2166 O.2          1    LIG   0.0000
   7 C7           2.7849     3.4795    -0.4200 C.ar         1    LIG   0.0000
   8 C8           2.4267     2.8170    -1.5885 C.ar         1    LIG   0.0000
   9 C9           2.0893     3.5446    -2.7253 C.ar         1    LIG   0.0000
  10 C10          2.1168     4.9341    -2.6746 C.ar         1    LIG   0.0000
  11 Cl11         1.6879     5.8729    -4.1254 Cl           1    LIG   0.0000
  12 C12          2.4768     5.5912    -1.5037 C.ar         1    LIG   0.0000
  13 Cl13         2.5050     7.3704    -1.4627 Cl           1    LIG   0.0000
  14 C14          2.8140     4.8688    -0.3638 C.ar         1    LIG   0.0000
  15 H           -1.1339     3.2629     2.2411 H            1    LIG   0.0000
  16 H           -1.2837     1.6368     2.2411 H            1    LIG   0.0000
  17 H           -0.0590     2.3439     3.0576 H            1    LIG   0.0000
  18 H           -0.3349     2.3693     0.1835 H            1    LIG   0.0000
  19 H            0.8898     3.0764     1.0000 H            1    LIG   0.0000
  20 H            0.5000     0.1340     1.0000 H            1    LIG   0.0000
  21 H            2.8000     0.1340     1.0000 H            1    LIG   0.0000
  22 H            2.4115     1.8174    -1.6119 H            1    LIG   0.0000
  23 H            1.8302     3.0740    -3.5688 H            1    LIG   0.0000
  24 H            3.0725     5.3394     0.4798 H            1    LIG   0.0000
@<TRIPOS>BOND
   1        1        2 1
   2        2        3 1
   3        3        4 2
   4        4        5 1
   5        5        6 2
   6        5        7 1
   7        7        8 ar
   8        8        9 ar
   9        9       10 ar
  10       10       11 1
  11       10       12 ar
  12       12       13 1
  13       12       14 ar
  14       14        7 ar
  15        1       15 1
  16        1       16 1
  17        1       17 1
  18        2       18 1
  19        2       19 1
  20        3       20 1
  21        4       21 1
  22        8       22 1
  23        9       23 1
  24       14       24 1

@<TRIPOS>MOLECULE

  24   24
SMALL
USER_CHARGES
@<TRIPOS>ATOM
   1 C1          -0.6339     2.3969     2.2411 C.3          1    LIG   0.0000
   2 C2           0.2400     2.3164     1.0000 C.3          1    LIG   0.0000
   3 C3           1.0000     1.0000     1.0000 C.2          1    LIG   0.0000
   4 C4           2.3000     1.0000     1.0000 C.2          1    LIG   0.0000
   5 S5           3.2050     2.5675     1.0000 S.o          1    LIG   0.0000
   6 O6           2.8450     3.3488     2.2166 O.2          1    LIG   0.0000
   7 C7           2.7849     3.4795    -0.4200 C.ar         1    LIG   0.0000
   8 C8           2.8081     4.8689    -0.3835 C.ar         1    LIG   0.0000
   9 C9           2.4733     5.6004    -1.5186 C.ar         1    LIG   0.0000
  10 C10          2.1169     4.9247    -2.6807 C.ar         1    LIG   0.0000
  11 Cl11         1.6856     5.8532    -4.1374 Cl           1    LIG   0.0000
  12 C12          2.0945     3.5351    -2.7110 C.ar         1    LIG   0.0000
  13 Cl13         1.6349     2.6921    -4.2098 Cl           1    LIG   0.0000
  14 C14          2.4293     2.7987    -1.5794 C.ar         1    LIG   0.0000
  15 H           -1.1339     3.2629     2.2411 H            1    LIG   0.0000
  16 H           -1.2837     1.6368     2.2411 H            1    LIG   0.0000
  17 H           -0.0590     2.3439     3.0576 H            1    LIG   0.0000
  18 H           -0.3349     2.3693     0.1835 H            1    LIG   0.0000
  19 H            0.8898     3.0764     1.0000 H            1    LIG   0.0000
  20 H            0.5000     0.1340     1.0000 H            1    LIG   0.0000
  21 H            2.8000     0.1340     1.0000 H            1    LIG   0.0000
  22 H            3.0655     5.3427     0.4587 H            1    LIG   0.0000
  23 H            2.4886     6.6001    -1.4990 H            1    LIG   0.0000
  24 H            2.4146     1.7990    -1.5992 H            1    LIG   0.0000
@<TRIPOS>BOND
   1        1        2 1
   2        2        3 1
   3        3        4 2
   4        4        5 1
   5        5        6 2
   6        5        7 1
   7        7        8 ar
   8        8        9 ar
   9        9       10 ar
  10       10       11 1
  11       10       12 ar
  12       12       13 1
  13       12       14 ar
  14       14        7 ar
  15        1       15 1
  16        1       16 1
  17        1       17 1
  18        2       18 1
  19        2       19 1
  20        3       20 1
  21        4       21 1
  22        8       22 1
  23        9       23 1
  24       14       24 1

@<TRIPOS>MOLECULE

  24   24
SMALL
USER_CHARGES
@<TRIPOS>ATOM
   1 C1          -0.6339     2.3969     2.2411 C.3          1    LIG   0.0000
   2 C2           0.2400     2.3164     1.0000 C.3          1    LIG   0.0000
   3 C3           1.0000     1.0000     1.0000 C.2          1    LIG   0.0000
   4 C4           2.3000     1.0000     1.0000 C.2          1    LIG   0.0000
   5 S5           3.2050     2.5675     1.0000 S.o          1    LIG   0.0000
   6 O6           2.5214     3.5357     1.9030 O.2          1    LIG   0.0000
   7 C7           3.2483     3.2119    -0.6148 C.ar         1    LIG   0.0000
   8 C8           4.2932     2.8754    -1.4676 C.ar         1    LIG   0.0000
   9 C9           4.3293     3.3891    -2.7601 C.ar         1    LIG   0.0000
  10 C10          3.3119     4.2385    -3.1815 C.ar         1    LIG   0.0000
  11 Cl11         3.3512     4.9013    -4.8335 Cl           1    LIG   0.0000
  12 C12          2.2700     4.5723    -2.3239 C.ar         1    LIG   0.0000
  13 Cl13         0.9790     5.6615    -2.8853 Cl           1    LIG   0.0000
  14 C14          2.2283     4.0608    -1.0310 C.ar         1    LIG   0.0000
  15 H           -1.1339     3.2629     2.2411 H            1    LIG   0.0000
  16 H           -1.2837     1.6368     2.2411 H            1    LIG   0.0000
  17 H           -0.0590     2.3439     3.0576 H            1    LIG   0.0000
  18 H           -0.3349     2.3693     0.1835 H            1    LIG   0.0000
  19 H            0.8898     3.0764     1.0000 H            1    LIG   0.0000
  20 H            0.5000     0.1340     1.0000 H            1    LIG   0.0000
  21 H            2.8000     0.1340     1.0000 H            1    LIG   0.0000
  22 H            5.0190     2.2641    -1.1521 H            1    LIG   0.0000
  23 H            5.0778     3.1504    -3.3787 H            1    LIG   0.0000
  24 H            1.4794     4.2990    -0.4126 H            1    LIG   0.0000
@<TRIPOS>BOND
   1        1        2 1
   2        2        3 1
   3        3        4 2
   4        4        5 1
   5        5        6 2
   6        5        7 1
   7        7        8 ar
   8        8        9 ar
   9        9       10 ar
  10       10       11 1
  11       10       12 ar
  12       12       13 1
  13       12       14 ar
  14       14        7 ar
  15        1       15 1
  16        1       16 1
  17        1       17 1
  18        2       18 1
  19        2       19 1
  20        3       20 1
  21        4       21 1
  22        8       22 1
  23        9       23 1
  24       14       24 1

@<TRIPOS>MOLECULE

  24   24
SMALL
USER_CHARGES
@<TRIPOS>ATOM
   1 C1          -0.6339     2.3969     2.2411 C.3          1    LIG   0.0000
   2 C2           0.2400     2.3164     1.0000 C.3          1    LIG   0.0000
   3 C3           1.0000     1.0000     1.0000 C.2          1    LIG   0.0000
   4 C4           2.3000     1.0000     1.0000 C.2          1    LIG   0.0000
   5 S5           3.2050     2.5675     1.0000 S.o          1    LIG   0.0000
   6 O6           2.5214     3.5357     1.9030 O.2          1    LIG   0.0000
   7 C7           3.2483     3.2119    -0.6148 C.ar         1    LIG   0.0000
   8 C8           2.2379     4.0621    -1.0491 C.ar         1    LIG   0.0000
   9 C9           2.2710     4.5795    -2.3402 C.ar         1    LIG   0.0000
  10 C10          3.3223     4.2345    -3.1828 C.ar         1    LIG   0.0000
  11 Cl11         3.3716     4.8911    -4.8370 Cl           1    LIG   0.0000
  12 C12          4.3294     3.3830    -2.7432 C.ar         1    LIG   0.0000
  13 Cl13         5.6648     2.9554    -3.8396 Cl           1    LIG   0.0000
  14 C14          4.3018     2.8637    -1.4532 C.ar         1    LIG   0.0000
  15 H           -1.1339     3.2629     2.2411 H            1    LIG   0.0000
  16 H           -1.2837     1.6368     2.2411 H            1    LIG   0.0000
  17 H           -0.0590     2.3439     3.0576 H            1    LIG   0.0000
  18 H           -0.3349     2.3693     0.1835 H            1    LIG   0.0000
  19 H            0.8898     3.0764     1.0000 H            1    LIG   0.0000
  20 H            0.5000     0.1340     1.0000 H            1    LIG   0.0000
  21 H            2.8000     0.1340     1.0000 H            1    LIG   0.0000
  22 H            1.4871     4.3019    -0.4336 H            1    LIG   0.0000
  23 H            1.5476     5.1921    -2.6585 H            1    LIG   0.0000
  24 H            5.0257     2.2517    -1.1346 H            1    LIG   0.0000
@<TRIPOS>BOND
   1        1        2 1
   2        2        3 1
   3        3        4 2
   4        4        5 1
   5        5        6 2
   6        5        7 1
   7        7        8 ar
   8        8        9 ar
   9        9       10 ar
  10       10       11 1
  11       10       12 ar
  12       12       13 1
  13       12       14 ar
  14       14        7 ar
  15        1       15 1
  16        1       16 1
  17        1       17 1
  18        2       18 1
  19        2       19 1
  20        3       20 1
  21        4       21 1
  22        8       22 1
  23        9       23 1
  24       14       24 1

@<TRIPOS>MOLECULE

  24   24
SMALL
USER_CHARGES
@<TRIPOS>ATOM
   1 C1          -0.6339     2.3969     2.2411 C.3          1    LIG   0.0000
   2 C2           0.2400     2.3164     1.0000 C.3          1    LIG   0.0000
   3 C3           1.0000     1.0000     1.0000 C.2          1    LIG   0.0000
   4 C4           2.3000     1.0000     1.0000 C.2          1    LIG   0.0000
   5 S5           3.2050     2.5675     1.0000 S.o          1    LIG   0.0000
   6 O6           2.8450     3.3488    -0.2166 O.2          1    LIG   0.0000
   7 C7           4.9149     2.2497     1.0000 C.ar         1    LIG   0.0000
   8 C8           5.5964     2.1230     2.2050 C.ar         1    LIG   0.0000
   9 C9           6.9640     1.8679     2.2073 C.ar         1    LIG   0.0000
  10 C10          7.6332     1.7435     0.9945 C.ar         1    LIG   0.0000
  11 Cl11         9.3837     1.4184     0.9885 Cl           1    LIG   0.0000
  12 C12          6.9467     1.8722    -0.2074 C.ar         1    LIG   0.0000
  13 Cl13         7.8244     1.7093    -1.7473 Cl           1    LIG   0.0000
  14 C14          5.5791     2.1263    -0.2156 C.ar         1    LIG   0.0000
  15 H           -1.1339     3.2629     2.2411 H            1    LIG   0.0000
  16 H           -1.2837     1.6368     2.2411 H            1    LIG   0.0000
  17 H           -0.0590     2.3439     3.0576 H            1    LIG   0.0000
  18 H           -0.3349     2.3693     0.1835 H            1    LIG   0.0000
  19 H            0.8898     3.0764     1.0000 H            1    LIG   0.0000
  20 H            0.5000     0.1340     1.0000 H            1    LIG   0.0000
  21 H            2.8000     0.1340     1.0000 H            1    LIG   0.0000
  22 H            5.1036     2.2153     3.0702 H            1    LIG   0.0000
  23 H            7.4600     1.7750     3.0707 H            1    LIG   0.0000
  24 H            5.0831     2.2184    -1.0790 H            1    LIG   0.0000
@<TRIPOS>BOND
   1        1        2 1
   2        2        3 1
   3        3        4 2
   4        4        5 1
   5        5        6 2
   6        5        7 1
   7        7        8 ar
   8        8        9 ar
   9        9       10 ar
  10       10       11 1
  11       10       12 ar
  12       12       13 1
  13       12       14 ar
  14       14        7 ar
  15        1       15 1
  16        1       16 1
  17        1       17 1
  18        2       18 1
  19        2       19 1
  20        3       20 1
  21        4       21 1
  22        8       22 1
  23        9       23 1
  24       14       24 1

@<TRIPOS>MOLECULE

  24   24
SMALL
USER_CHARGES
@<TRIPOS>ATOM
   1 C1          -0.6339     2.3969     2.2411 C.3          1    LIG   0.0000
   2 C2           0.2400     2.3164     1.0000 C.3          1    LIG   0.0000
   3 C3           1.0000     1.0000     1.0000 C.2          1    LIG   0.0000
   4 C4           2.3000     1.0000     1.0000 C.2          1    LIG   0.0000
   5 S5           3.2050     2.5675     1.0000 S.o          1    LIG   0.0000
   6 O6           2.8450     3.3488    -0.2166 O.2          1    LIG   0.0000
   7 C7           4.9149     2.2497     1.0000 C.ar         1    LIG   0.0000
   8 C8           5.5964     2.1231    -0.2050 C.ar         1    LIG   0.0000
   9 C9           6.9644     1.8698    -0.2073 C.ar         1    LIG   0.0000
  10 C10          7.6336     1.7454     1.0055 C.ar         1    LIG   0.0000
  11 Cl11         9.3840     1.4198     1.0115 Cl           1    LIG   0.0000
  12 C12          6.9466     1.8720     2.2074 C.ar         1    LIG   0.0000
  13 Cl13         7.8243     1.7086     3.7473 Cl           1    LIG   0.0000
  14 C14          5.5791     2.1263     2.2156 C.ar         1    LIG   0.0000
  15 H           -1.1339     3.2629     2.2411 H            1    LIG   0.0000
  16 H           -1.2837     1.6368     2.2411 H            1    LIG   0.0000
  17 H           -0.0590     2.3439     3.0576 H            1    LIG   0.0000
  18 H           -0.3349     2.3693     0.1835 H            1    LIG   0.0000
  19 H            0.8898     3.0764     1.0000 H            1    LIG   0.0000
  20 H            0.5000     0.1340     1.0000 H            1    LIG   0.0000
  21 H            2.8000     0.1340     1.0000 H            1    LIG   0.0000
  22 H            5.1033     2.2141    -1.0702 H            1    LIG   0.0000
  23 H            7.4606     1.7782    -1.0707 H            1    LIG   0.0000
  24 H            5.0831     2.2185     3.0790 H            1    LIG   0.0000
@<TRIPOS>BOND
   1        1        2 1
   2        2        3 1
   3        3        4 2
   4        4        5 1
   5        5        6 2
   6        5        7 1
   7        7        8 ar
   8        8        9 ar
   9        9       10 ar
  10       10       11 1
  11       10       12 ar
  12       12       13 1
  13       12       14 ar
  14       14        7 ar
  15        1       15 1
  16        1       16 1
  17        1       17 1
  18        2       18 1
  19        2       19 1
  20        3       20 1
  21        4       21 1
  22        8       22 1
  23        9       23 1
  24       14       24 1

@<TRIPOS>MOLECULE

  24   24
SMALL
USER_CHARGES
@<TRIPOS>ATOM
   1 C1          -0.6339     2.3969     2.2411 C.3          1    LIG   0.0000
   2 C2           0.2400     2.3164     1.0000 C.3          1    LIG   0.0000
   3 C3           1.0000     1.0000     1.0000 C.2          1    LIG   0.0000
   4 C4           2.3000     1.0000     1.0000 C.2          1    LIG   0.0000
   5 S5           3.2050     2.5675     1.0000 S.o          1    LIG   0.0000
   6 O6           4.6699     2.2952     1.0000 O.2          1    LIG   0.0000
   7 C7           2.7849     3.4795     2.4200 C.ar         1    LIG   0.0000
   8 C8           2.8081     4.8689     2.3835 C.ar         1    LIG   0.0000
   9 C9           2.4714     5.6004     3.5180 C.ar         1    LIG   0.0000
  10 C10          2.1151     4.9247     4.6802 C.ar         1    LIG   0.0000
  11 Cl11         1.6842     5.8532     6.1370 Cl           1    LIG   0.0000
  12 C12          2.0946     3.5351     4.7111 C.ar         1    LIG   0.0000
  13 Cl13         1.6355     2.6921     6.2100 Cl           1    LIG   0.0000
  14 C14          2.4293     2.7987     3.5794 C.ar         1    LIG   0.0000
  15 H           -1.1339     3.2629     2.2411 H            1    LIG   0.0000
  16 H           -1.2837     1.6368     2.2411 H            1    LIG   0.0000
  17 H           -0.0590     2.3439     3.0576 H            1    LIG   0.0000
  18 H           -0.3349     2.3693     0.1835 H            1    LIG   0.0000
  19 H            0.8898     3.0764     1.0000 H            1    LIG   0.0000
  20 H            0.5000     0.1340     1.0000 H            1    LIG   0.0000
  21 H            2.8000     0.1340     1.0000 H            1    LIG   0.0000
  22 H            3.0667     5.3427     1.5417 H            1    LIG   0.0000
  23 H            2.4855     6.6001     3.4981 H            1    LIG   0.0000
  24 H            2.4145     1.7990     3.5992 H            1    LIG   0.0000
@<TRIPOS>BOND
   1        1        2 1
   2        2        3 1
   3        3        4 2
   4        4        5 1
   5        5        6 2
   6        5        7 1
   7        7        8 ar
   8        8        9 ar
   9        9       10 ar
  10       10       11 1
  11       10       12 ar
  12       12       13 1
  13       12       14 ar
  14       14        7 ar
  15        1       15 1
  16        1       16 1
  17        1       17 1
  18        2       18 1
  19        2       19 1
  20        3       20 1
  21        4       21 1
  22        8       22 1
  23        9       23 1
  24       14       24 1

@<TRIPOS>MOLECULE

  24   24
SMALL
USER_CHARGES
@<TRIPOS>ATOM
   1 C1          -0.6339     2.3969     2.2411 C.3          1    LIG   0.0000
   2 C2           0.2400     2.3164     1.0000 C.3          1    LIG   0.0000
   3 C3           1.0000     1.0000     1.0000 C.2          1    LIG   0.0000
   4 C4           2.3000     1.0000     1.0000 C.2          1    LIG   0.0000
   5 S5           3.2050     2.5675     1.0000 S.o          1    LIG   0.0000
   6 O6           4.6699     2.2952     1.0000 O.2          1    LIG   0.0000
   7 C7           2.7849     3.4795     2.4200 C.ar         1    LIG   0.0000
   8 C8           2.4267     2.8170     3.5885 C.ar         1    LIG   0.0000
   9 C9           2.0912     3.5446     4.7258 C.ar         1    LIG   0.0000
  10 C10          2.1186     4.9341     4.6752 C.ar         1    LIG   0.0000
  11 Cl11         1.6893     5.8729     6.1259 Cl           1    LIG   0.0000
  12 C12          2.4766     5.5912     3.5036 C.ar         1    LIG   0.0000
  13 Cl13         2.5044     7.3704     3.4625 Cl           1    LIG   0.0000
  14 C14          2.8140     4.8688     2.3638 C.ar         1    LIG   0.0000
  15 H           -1.1339     3.2629     2.2411 H            1    LIG   0.0000
  16 H           -1.2837     1.6368     2.2411 H            1    LIG   0.0000
  17 H           -0.0590     2.3439     3.0576 H            1    LIG   0.0000
  18 H           -0.3349     2.3693     0.1835 H            1    LIG   0.0000
  19 H            0.8898     3.0764     1.0000 H            1    LIG   0.0000
  20 H            0.5000     0.1340     1.0000 H            1    LIG   0.0000
  21 H            2.8000     0.1340     1.0000 H            1    LIG   0.0000
  22 H            2.4103     1.8174     3.6115 H            1    LIG   0.0000
  23 H            1.8333     3.0740     5.5697 H            1    LIG   0.0000
  24 H            3.0726     5.3394     1.5202 H            1    LIG   0.0000
@<TRIPOS>BOND
   1        1        2 1
   2        2        3 1
   3        3        4 2
   4        4        5 1
   5        5        6 2
   6        5        7 1
   7        7        8 ar
   8        8        9 ar
   9        9       10 ar
  10       10       11 1
  11       10       12 ar
  12       12       13 1
  13       12       14 ar
  14       14        7 ar
  15        1       15 1
  16        1       16 1
  17        1       17 1
  18        2       18 1
  19        2       19 1
  20        3       20 1
  21        4       21 1
  22        8       22 1
  23        9       23 1
  24       14       24 1

