@<TRIPOS>MOLECULE
*****
 24 24 0 0 0
SMALL
USER_CHARGES

@<TRIPOS>ATOM
      1 C1         -0.6339    2.3969    2.2411 C.3     1  LIG1        0.0000
      2 C2          0.2400    2.3164    1.0000 C.3     1  LIG1        0.0000
      3 C3          1.0000    1.0000    1.0000 C.2     1  LIG1        0.0000
      4 C4          2.3000    1.0000    1.0000 C.2     1  LIG1        0.0000
      5 S5          3.2050    2.5675    1.0000 S.O     1  LIG1        0.0000
      6 O6          4.6699    2.2952    1.0000 O.2     1  LIG1        0.0000
      7 C7          2.7849    3.4795    2.4200 C.3     1  LIG1        0.0000
      8 C8          2.4267    2.8170    3.5885 C.3     1  LIG1        0.0000
      9 C9          2.0912    3.5446    4.7258 C.3     1  LIG1        0.0000
     10 C10         2.1186    4.9341    4.6752 C.3     1  LIG1        0.0000
     11 Cl11        1.6893    5.8729    6.1259 Cl      1  LIG1        0.0000
     12 C12         2.4766    5.5912    3.5036 C.3     1  LIG1        0.0000
     13 Cl13        2.5044    7.3704    3.4625 Cl      1  LIG1        0.0000
     14 C14         2.8140    4.8688    2.3638 C.3     1  LIG1        0.0000
     15 H          -1.1339    3.2629    2.2411 H       1  LIG1        0.0000
     16 H          -1.2837    1.6368    2.2411 H       1  LIG1        0.0000
     17 H          -0.0590    2.3439    3.0576 H       1  LIG1        0.0000
     18 H          -0.3349    2.3693    0.1835 H       1  LIG1        0.0000
     19 H           0.8898    3.0764    1.0000 H       1  LIG1        0.0000
     20 H           0.5000    0.1340    1.0000 H       1  LIG1        0.0000
     21 H           2.8000    0.1340    1.0000 H       1  LIG1        0.0000
     22 H           2.4103    1.8174    3.6115 H       1  LIG1        0.0000
     23 H           1.8333    3.0740    5.5697 H       1  LIG1        0.0000
     24 H           3.0726    5.3394    1.5202 H       1  LIG1        0.0000
@<TRIPOS>BOND
     1     1     2    1
     2     2     3    1
     3     3     4    2
     4     4     5    1
     5     5     6    2
     6     5     7    1
     7     7     8   ar
     8     8     9   ar
     9     9    10   ar
    10    10    11    1
    11    10    12   ar
    12    12    13    1
    13    12    14   ar
    14    14     7   ar
    15     1    15    1
    16     1    16    1
    17     1    17    1
    18     2    18    1
    19     2    19    1
    20     3    20    1
    21     4    21    1
    22     8    22    1
    23     9    23    1
    24    14    24    1
