@<TRIPOS>MOLECULE
*****
 24 24 0 0 0
SMALL
USER_CHARGES

@<TRIPOS>ATOM
      1 C1         -0.6339    2.3969    2.2411 C.3     1  LIG1        0.0000
      2 C2          0.2400    2.3164    1.0000 C.3     1  LIG1        0.0000
      3 C3          1.0000    1.0000    1.0000 C.2     1  LIG1        0.0000
      4 C4          2.3000    1.0000    1.0000 C.2     1  LIG1        0.0000
      5 S5          3.2050    2.5675    1.0000 S.O     1  LIG1        0.0000
      6 O6          4.0616    2.6464   -0.2166 O.2     1  LIG1        0.0000
      7 C7          4.2049    2.6596    2.4200 C.3     1  LIG1        0.0000
      8 C8          3.6996    3.2181    3.5885 C.3     1  LIG1        0.0000
      9 C9          4.4975    3.2920    4.7258 C.3     1  LIG1        0.0000
     10 C10         5.7984    2.8029    4.6752 C.3     1  LIG1        0.0000
     11 Cl11        6.8266    2.8948    6.1259 Cl      1  LIG1        0.0000
     12 C12         6.2985    2.2464    3.5036 C.3     1  LIG1        0.0000
     13 Cl13        7.9668    1.6271    3.4625 Cl      1  LIG1        0.0000
     14 C14         5.5050    2.1691    2.3638 C.3     1  LIG1        0.0000
     15 H          -1.1339    3.2629    2.2411 H       1  LIG1        0.0000
     16 H          -1.2837    1.6368    2.2411 H       1  LIG1        0.0000
     17 H          -0.0590    2.3439    3.0576 H       1  LIG1        0.0000
     18 H          -0.3349    2.3693    0.1835 H       1  LIG1        0.0000
     19 H           0.8898    3.0764    1.0000 H       1  LIG1        0.0000
     20 H           0.5000    0.1340    1.0000 H       1  LIG1        0.0000
     21 H           2.8000    0.1340    1.0000 H       1  LIG1        0.0000
     22 H           2.7627    3.5668    3.6115 H       1  LIG1        0.0000
     23 H           4.1398    3.6919    5.5697 H       1  LIG1        0.0000
     24 H           5.8625    1.7684    1.5202 H       1  LIG1        0.0000
@<TRIPOS>BOND
     1     1     2    1
     2     2     3    1
     3     3     4    2
     4     4     5    1
     5     5     6    2
     6     5     7    1
     7     7     8   ar
     8     8     9   ar
     9     9    10   ar
    10    10    11    1
    11    10    12   ar
    12    12    13    1
    13    12    14   ar
    14    14     7   ar
    15     1    15    1
    16     1    16    1
    17     1    17    1
    18     2    18    1
    19     2    19    1
    20     3    20    1
    21     4    21    1
    22     8    22    1
    23     9    23    1
    24    14    24    1
