@<TRIPOS>MOLECULE

  59   62
SMALL
USER_CHARGES
@<TRIPOS>ATOM
   1 C1          -0.2937    -0.9957     4.7199 C.3          1    LIG   0.0000
   2 C2           0.6939    -1.6830     3.7912 C.3          1    LIG   0.0000
   3 O3           1.3933    -0.7047     3.0362 O.3          1    LIG   0.0000
   4 C4           2.2801    -1.1712     2.1924 C.2          1    LIG   0.0000
   5 O5           2.4546    -2.3548     2.0987 O.2          1    LIG   0.0000
   6 C6           3.0523    -0.2556     1.3698 C.2          1    LIG   0.0000
   7 C7           4.2834    -0.6615     1.0279 C.2          1    LIG   0.0000
   8 C8           4.7595    -2.0291     1.4999 C.3          1    LIG   0.0000
   9 N9           5.2228     0.0668     0.2630 N.pl3        1    LIG   0.0000
  10 C10          5.3828     1.4648     0.3400 C.ar         1    LIG   0.0000
  11 C11          6.7010     1.8896     0.2041 C.ar         1    LIG   0.0000
  12 C12          7.0235     3.2409     0.3120 C.ar         1    LIG   0.0000
  13 C13          6.0237     4.1771     0.5571 C.ar         1    LIG   0.0000
  14 C14          4.7041     3.7481     0.6704 C.ar         1    LIG   0.0000
  15 C15          4.3525     2.4000     0.5516 C.ar         1    LIG   0.0000
  16 N16          2.9737     2.0971     0.6460 N.2          1    LIG   0.0000
  17 C17          2.3977     1.0000     1.0000 C.2          1    LIG   0.0000
  18 N18          1.0000     1.0000     1.0000 N.am         1    LIG   0.0000
  19 C19          0.3150    -0.1291     1.3643 C.2          1    LIG   0.0000
  20 O20          0.7944    -1.2115     1.1676 O.2          1    LIG   0.0000
  21 C21         -0.9891    -0.0164     1.9876 C.ar         1    LIG   0.0000
  22 C22         -1.8496    -1.1092     1.9754 C.ar         1    LIG   0.0000
  23 C23         -3.1000    -0.9962     2.5743 C.ar         1    LIG   0.0000
  24 C24         -3.4774     0.1998     3.1753 C.ar         1    LIG   0.0000
  25 C25         -4.8450     0.3148     3.8270 C.3          1    LIG   0.0000
  26 N26         -5.8222     0.7865     2.8353 N.am         1    LIG   0.0000
  27 C27         -6.0402     2.1294     2.6735 C.2          1    LIG   0.0000
  28 O28         -5.4333     2.9205     3.3412 O.2          1    LIG   0.0000
  29 C29         -7.0035     2.5944     1.6959 C.2          1    LIG   0.0000
  30 C30         -7.7594     1.8251     0.8702 C.2          1    LIG   0.0000
  31 C31         -8.6126     2.5817     0.0238 C.2          1    LIG   0.0000
  32 C32         -8.5674     3.9381     0.1439 C.2          1    LIG   0.0000
  33 S33         -7.4019     4.2171     1.3601 S.3          1    LIG   0.0000
  34 C34         -2.6099     1.2878     3.1840 C.ar         1    LIG   0.0000
  35 C35         -1.3580     1.1836     2.5874 C.ar         1    LIG   0.0000
  36 H           -0.7863    -1.6847     5.2516 H            1    LIG   0.0000
  37 H            0.2005    -0.3866     5.3402 H            1    LIG   0.0000
  38 H           -0.9451    -0.4636     4.1790 H            1    LIG   0.0000
  39 H            1.3453    -2.2151     4.3321 H            1    LIG   0.0000
  40 H            0.1997    -2.2922     3.1709 H            1    LIG   0.0000
  41 H            4.0349    -2.4697     2.0299 H            1    LIG   0.0000
  42 H            4.9843    -2.5957     0.7072 H            1    LIG   0.0000
  43 H            5.5720    -1.9198     2.0726 H            1    LIG   0.0000
  44 H            5.8083    -0.4398    -0.3699 H            1    LIG   0.0000
  45 H            7.4224     1.2200     0.0277 H            1    LIG   0.0000
  46 H            7.9733     3.5378     0.2132 H            1    LIG   0.0000
  47 H            6.2504     5.1466     0.6508 H            1    LIG   0.0000
  48 H            3.9870     4.4237     0.8417 H            1    LIG   0.0000
  49 H            0.5000     1.8242     0.7341 H            1    LIG   0.0000
  50 H           -1.5726    -1.9662     1.5409 H            1    LIG   0.0000
  51 H           -3.7274    -1.7748     2.5728 H            1    LIG   0.0000
  52 H           -5.1261    -0.5807     4.1721 H            1    LIG   0.0000
  53 H           -4.7993     0.9650     4.5854 H            1    LIG   0.0000
  54 H           -6.3279     0.1273     2.2788 H            1    LIG   0.0000
  55 H           -7.7191     0.8259     0.8593 H            1    LIG   0.0000
  56 H           -9.2216     2.1372    -0.6332 H            1    LIG   0.0000
  57 H           -9.0969     4.6168    -0.3651 H            1    LIG   0.0000
  58 H           -2.8866     2.1446     3.6191 H            1    LIG   0.0000
  59 H           -0.7303     1.9620     2.5896 H            1    LIG   0.0000
@<TRIPOS>BOND
   1        1        2 1
   2        2        3 1
   3        3        4 1
   4        4        5 2
   5        4        6 1
   6        6        7 2
   7        7        8 1
   8        7        9 1
   9        9       10 1
  10       10       11 ar
  11       11       12 ar
  12       12       13 ar
  13       13       14 ar
  14       14       15 ar
  15       15       10 ar
  16       15       16 1
  17       16       17 2
  18       17        6 1
  19       17       18 1
  20       18       19 am
  21       19       20 2
  22       19       21 1
  23       21       22 ar
  24       22       23 ar
  25       23       24 ar
  26       24       25 1
  27       25       26 1
  28       26       27 am
  29       27       28 2
  30       27       29 1
  31       29       30 2
  32       30       31 1
  33       31       32 2
  34       32       33 1
  35       33       29 1
  36       24       34 ar
  37       34       35 ar
  38       35       21 ar
  39        1       36 1
  40        1       37 1
  41        1       38 1
  42        2       39 1
  43        2       40 1
  44        8       41 1
  45        8       42 1
  46        8       43 1
  47        9       44 1
  48       11       45 1
  49       12       46 1
  50       13       47 1
  51       14       48 1
  52       18       49 1
  53       22       50 1
  54       23       51 1
  55       25       52 1
  56       25       53 1
  57       26       54 1
  58       30       55 1
  59       31       56 1
  60       32       57 1
  61       34       58 1
  62       35       59 1

@<TRIPOS>MOLECULE

  59   62
SMALL
USER_CHARGES
@<TRIPOS>ATOM
   1 C1          -0.2937    -0.9957     4.7199 C.3          1    LIG   0.0000
   2 C2           0.6939    -1.6830     3.7912 C.3          1    LIG   0.0000
   3 O3           1.3933    -0.7047     3.0362 O.3          1    LIG   0.0000
   4 C4           2.2801    -1.1712     2.1924 C.2          1    LIG   0.0000
   5 O5           2.4546    -2.3548     2.0987 O.2          1    LIG   0.0000
   6 C6           3.0523    -0.2556     1.3698 C.2          1    LIG   0.0000
   7 C7           4.2834    -0.6615     1.0279 C.2          1    LIG   0.0000
   8 C8           4.7595    -2.0291     1.4999 C.3          1    LIG   0.0000
   9 N9           5.2228     0.0668     0.2630 N.pl3        1    LIG   0.0000
  10 C10          5.3828     1.4648     0.3400 C.ar         1    LIG   0.0000
  11 C11          6.7010     1.8896     0.2041 C.ar         1    LIG   0.0000
  12 C12          7.0235     3.2409     0.3120 C.ar         1    LIG   0.0000
  13 C13          6.0237     4.1771     0.5571 C.ar         1    LIG   0.0000
  14 C14          4.7041     3.7481     0.6704 C.ar         1    LIG   0.0000
  15 C15          4.3525     2.4000     0.5516 C.ar         1    LIG   0.0000
  16 N16          2.9737     2.0971     0.6460 N.2          1    LIG   0.0000
  17 C17          2.3977     1.0000     1.0000 C.2          1    LIG   0.0000
  18 N18          1.0000     1.0000     1.0000 N.am         1    LIG   0.0000
  19 C19          0.3150    -0.1291     1.3643 C.2          1    LIG   0.0000
  20 O20          0.7944    -1.2115     1.1676 O.2          1    LIG   0.0000
  21 C21         -0.9891    -0.0164     1.9876 C.ar         1    LIG   0.0000
  22 C22         -1.8496    -1.1092     1.9754 C.ar         1    LIG   0.0000
  23 C23         -3.1000    -0.9962     2.5743 C.ar         1    LIG   0.0000
  24 C24         -3.4774     0.1998     3.1753 C.ar         1    LIG   0.0000
  25 C25         -4.8450     0.3148     3.8270 C.3          1    LIG   0.0000
  26 N26         -5.8222     0.7865     2.8353 N.am         1    LIG   0.0000
  27 C27         -6.0402     2.1294     2.6735 C.2          1    LIG   0.0000
  28 O28         -7.0514     2.5149     2.1549 O.2          1    LIG   0.0000
  29 C29         -5.0496     3.0842     3.1284 C.2          1    LIG   0.0000
  30 C30         -4.1932     2.9318     4.1717 C.2          1    LIG   0.0000
  31 C31         -3.3400     4.0505     4.3647 C.2          1    LIG   0.0000
  32 C32         -3.4828     5.0995     3.5070 C.2          1    LIG   0.0000
  33 S33         -4.7392     4.6189     2.4556 S.3          1    LIG   0.0000
  34 C34         -2.6099     1.2878     3.1840 C.ar         1    LIG   0.0000
  35 C35         -1.3580     1.1836     2.5874 C.ar         1    LIG   0.0000
  36 H           -0.7863    -1.6847     5.2516 H            1    LIG   0.0000
  37 H            0.2005    -0.3866     5.3402 H            1    LIG   0.0000
  38 H           -0.9451    -0.4636     4.1790 H            1    LIG   0.0000
  39 H            1.3453    -2.2151     4.3321 H            1    LIG   0.0000
  40 H            0.1997    -2.2922     3.1709 H            1    LIG   0.0000
  41 H            4.0349    -2.4697     2.0299 H            1    LIG   0.0000
  42 H            4.9843    -2.5957     0.7072 H            1    LIG   0.0000
  43 H            5.5720    -1.9198     2.0726 H            1    LIG   0.0000
  44 H            5.8083    -0.4398    -0.3699 H            1    LIG   0.0000
  45 H            7.4224     1.2200     0.0277 H            1    LIG   0.0000
  46 H            7.9733     3.5378     0.2132 H            1    LIG   0.0000
  47 H            6.2504     5.1466     0.6508 H            1    LIG   0.0000
  48 H            3.9870     4.4237     0.8417 H            1    LIG   0.0000
  49 H            0.5000     1.8242     0.7341 H            1    LIG   0.0000
  50 H           -1.5726    -1.9662     1.5409 H            1    LIG   0.0000
  51 H           -3.7274    -1.7748     2.5728 H            1    LIG   0.0000
  52 H           -5.1261    -0.5807     4.1721 H            1    LIG   0.0000
  53 H           -4.7993     0.9650     4.5854 H            1    LIG   0.0000
  54 H           -6.3279     0.1273     2.2788 H            1    LIG   0.0000
  55 H           -4.1663     2.1139     4.7464 H            1    LIG   0.0000
  56 H           -2.6622     4.0677     5.0999 H            1    LIG   0.0000
  57 H           -2.9681     5.9568     3.4958 H            1    LIG   0.0000
  58 H           -2.8866     2.1446     3.6191 H            1    LIG   0.0000
  59 H           -0.7303     1.9620     2.5896 H            1    LIG   0.0000
@<TRIPOS>BOND
   1        1        2 1
   2        2        3 1
   3        3        4 1
   4        4        5 2
   5        4        6 1
   6        6        7 2
   7        7        8 1
   8        7        9 1
   9        9       10 1
  10       10       11 ar
  11       11       12 ar
  12       12       13 ar
  13       13       14 ar
  14       14       15 ar
  15       15       10 ar
  16       15       16 1
  17       16       17 2
  18       17        6 1
  19       17       18 1
  20       18       19 am
  21       19       20 2
  22       19       21 1
  23       21       22 ar
  24       22       23 ar
  25       23       24 ar
  26       24       25 1
  27       25       26 1
  28       26       27 am
  29       27       28 2
  30       27       29 1
  31       29       30 2
  32       30       31 1
  33       31       32 2
  34       32       33 1
  35       33       29 1
  36       24       34 ar
  37       34       35 ar
  38       35       21 ar
  39        1       36 1
  40        1       37 1
  41        1       38 1
  42        2       39 1
  43        2       40 1
  44        8       41 1
  45        8       42 1
  46        8       43 1
  47        9       44 1
  48       11       45 1
  49       12       46 1
  50       13       47 1
  51       14       48 1
  52       18       49 1
  53       22       50 1
  54       23       51 1
  55       25       52 1
  56       25       53 1
  57       26       54 1
  58       30       55 1
  59       31       56 1
  60       32       57 1
  61       34       58 1
  62       35       59 1

@<TRIPOS>MOLECULE

  59   62
SMALL
USER_CHARGES
@<TRIPOS>ATOM
   1 C1          -0.2937    -0.9957     4.7199 C.3          1    LIG   0.0000
   2 C2           0.6939    -1.6830     3.7912 C.3          1    LIG   0.0000
   3 O3           1.3933    -0.7047     3.0362 O.3          1    LIG   0.0000
   4 C4           2.2801    -1.1712     2.1924 C.2          1    LIG   0.0000
   5 O5           2.4546    -2.3548     2.0987 O.2          1    LIG   0.0000
   6 C6           3.0523    -0.2556     1.3698 C.2          1    LIG   0.0000
   7 C7           4.2834    -0.6615     1.0279 C.2          1    LIG   0.0000
   8 C8           4.7595    -2.0291     1.4999 C.3          1    LIG   0.0000
   9 N9           5.2228     0.0668     0.2630 N.pl3        1    LIG   0.0000
  10 C10          5.3828     1.4648     0.3400 C.ar         1    LIG   0.0000
  11 C11          6.7010     1.8896     0.2041 C.ar         1    LIG   0.0000
  12 C12          7.0235     3.2409     0.3120 C.ar         1    LIG   0.0000
  13 C13          6.0237     4.1771     0.5571 C.ar         1    LIG   0.0000
  14 C14          4.7041     3.7481     0.6704 C.ar         1    LIG   0.0000
  15 C15          4.3525     2.4000     0.5516 C.ar         1    LIG   0.0000
  16 N16          2.9737     2.0971     0.6460 N.2          1    LIG   0.0000
  17 C17          2.3977     1.0000     1.0000 C.2          1    LIG   0.0000
  18 N18          1.0000     1.0000     1.0000 N.am         1    LIG   0.0000
  19 C19          0.3150    -0.1291     1.3643 C.2          1    LIG   0.0000
  20 O20          0.7944    -1.2115     1.1676 O.2          1    LIG   0.0000
  21 C21         -0.9891    -0.0164     1.9876 C.ar         1    LIG   0.0000
  22 C22         -1.8496    -1.1092     1.9754 C.ar         1    LIG   0.0000
  23 C23         -3.1000    -0.9962     2.5743 C.ar         1    LIG   0.0000
  24 C24         -3.4774     0.1998     3.1753 C.ar         1    LIG   0.0000
  25 C25         -4.8450     0.3148     3.8270 C.3          1    LIG   0.0000
  26 N26         -5.8222     0.7865     2.8353 N.am         1    LIG   0.0000
  27 C27         -7.1316     0.9669     3.1959 C.2          1    LIG   0.0000
  28 O28         -7.9293     1.3520     2.3864 O.2          1    LIG   0.0000
  29 C29         -7.5532     0.6927     4.5549 C.2          1    LIG   0.0000
  30 C30         -6.7718     0.2517     5.5748 C.2          1    LIG   0.0000
  31 C31         -7.4830     0.0789     6.7918 C.2          1    LIG   0.0000
  32 C32         -8.8144     0.3686     6.7830 C.2          1    LIG   0.0000
  33 S33         -9.1304     0.8594     5.1785 S.3          1    LIG   0.0000
  34 C34         -2.6099     1.2878     3.1840 C.ar         1    LIG   0.0000
  35 C35         -1.3580     1.1836     2.5874 C.ar         1    LIG   0.0000
  36 H           -0.7863    -1.6847     5.2516 H            1    LIG   0.0000
  37 H            0.2005    -0.3866     5.3402 H            1    LIG   0.0000
  38 H           -0.9451    -0.4636     4.1790 H            1    LIG   0.0000
  39 H            1.3453    -2.2151     4.3321 H            1    LIG   0.0000
  40 H            0.1997    -2.2922     3.1709 H            1    LIG   0.0000
  41 H            4.0349    -2.4697     2.0299 H            1    LIG   0.0000
  42 H            4.9843    -2.5957     0.7072 H            1    LIG   0.0000
  43 H            5.5720    -1.9198     2.0726 H            1    LIG   0.0000
  44 H            5.8083    -0.4398    -0.3699 H            1    LIG   0.0000
  45 H            7.4224     1.2200     0.0277 H            1    LIG   0.0000
  46 H            7.9733     3.5378     0.2132 H            1    LIG   0.0000
  47 H            6.2504     5.1466     0.6508 H            1    LIG   0.0000
  48 H            3.9870     4.4237     0.8417 H            1    LIG   0.0000
  49 H            0.5000     1.8242     0.7341 H            1    LIG   0.0000
  50 H           -1.5726    -1.9662     1.5409 H            1    LIG   0.0000
  51 H           -3.7274    -1.7748     2.5728 H            1    LIG   0.0000
  52 H           -5.1261    -0.5807     4.1721 H            1    LIG   0.0000
  53 H           -4.7993     0.9650     4.5854 H            1    LIG   0.0000
  54 H           -5.5313     0.9758     1.8974 H            1    LIG   0.0000
  55 H           -5.7937     0.0672     5.4783 H            1    LIG   0.0000
  56 H           -7.0256    -0.2423     7.6210 H            1    LIG   0.0000
  57 H           -9.4602     0.3076     7.5440 H            1    LIG   0.0000
  58 H           -2.8866     2.1446     3.6191 H            1    LIG   0.0000
  59 H           -0.7303     1.9620     2.5896 H            1    LIG   0.0000
@<TRIPOS>BOND
   1        1        2 1
   2        2        3 1
   3        3        4 1
   4        4        5 2
   5        4        6 1
   6        6        7 2
   7        7        8 1
   8        7        9 1
   9        9       10 1
  10       10       11 ar
  11       11       12 ar
  12       12       13 ar
  13       13       14 ar
  14       14       15 ar
  15       15       10 ar
  16       15       16 1
  17       16       17 2
  18       17        6 1
  19       17       18 1
  20       18       19 am
  21       19       20 2
  22       19       21 1
  23       21       22 ar
  24       22       23 ar
  25       23       24 ar
  26       24       25 1
  27       25       26 1
  28       26       27 am
  29       27       28 2
  30       27       29 1
  31       29       30 2
  32       30       31 1
  33       31       32 2
  34       32       33 1
  35       33       29 1
  36       24       34 ar
  37       34       35 ar
  38       35       21 ar
  39        1       36 1
  40        1       37 1
  41        1       38 1
  42        2       39 1
  43        2       40 1
  44        8       41 1
  45        8       42 1
  46        8       43 1
  47        9       44 1
  48       11       45 1
  49       12       46 1
  50       13       47 1
  51       14       48 1
  52       18       49 1
  53       22       50 1
  54       23       51 1
  55       25       52 1
  56       25       53 1
  57       26       54 1
  58       30       55 1
  59       31       56 1
  60       32       57 1
  61       34       58 1
  62       35       59 1

@<TRIPOS>MOLECULE

  59   62
SMALL
USER_CHARGES
@<TRIPOS>ATOM
   1 C1          -0.2937    -0.9957     4.7199 C.3          1    LIG   0.0000
   2 C2           0.6939    -1.6830     3.7912 C.3          1    LIG   0.0000
   3 O3           1.3933    -0.7047     3.0362 O.3          1    LIG   0.0000
   4 C4           2.2801    -1.1712     2.1924 C.2          1    LIG   0.0000
   5 O5           2.4546    -2.3548     2.0987 O.2          1    LIG   0.0000
   6 C6           3.0523    -0.2556     1.3698 C.2          1    LIG   0.0000
   7 C7           4.2834    -0.6615     1.0279 C.2          1    LIG   0.0000
   8 C8           4.7595    -2.0291     1.4999 C.3          1    LIG   0.0000
   9 N9           5.2228     0.0668     0.2630 N.pl3        1    LIG   0.0000
  10 C10          5.3828     1.4648     0.3400 C.ar         1    LIG   0.0000
  11 C11          6.7010     1.8896     0.2041 C.ar         1    LIG   0.0000
  12 C12          7.0235     3.2409     0.3120 C.ar         1    LIG   0.0000
  13 C13          6.0237     4.1771     0.5571 C.ar         1    LIG   0.0000
  14 C14          4.7041     3.7481     0.6704 C.ar         1    LIG   0.0000
  15 C15          4.3525     2.4000     0.5516 C.ar         1    LIG   0.0000
  16 N16          2.9737     2.0971     0.6460 N.2          1    LIG   0.0000
  17 C17          2.3977     1.0000     1.0000 C.2          1    LIG   0.0000
  18 N18          1.0000     1.0000     1.0000 N.am         1    LIG   0.0000
  19 C19          0.3150    -0.1291     1.3643 C.2          1    LIG   0.0000
  20 O20          0.7944    -1.2115     1.1676 O.2          1    LIG   0.0000
  21 C21         -0.9891    -0.0164     1.9876 C.ar         1    LIG   0.0000
  22 C22         -1.8496    -1.1092     1.9754 C.ar         1    LIG   0.0000
  23 C23         -3.1000    -0.9962     2.5743 C.ar         1    LIG   0.0000
  24 C24         -3.4774     0.1998     3.1753 C.ar         1    LIG   0.0000
  25 C25         -4.8450     0.3148     3.8270 C.3          1    LIG   0.0000
  26 N26         -5.5635    -0.9600     3.6864 N.am         1    LIG   0.0000
  27 C27         -6.3572    -1.1819     2.5920 C.2          1    LIG   0.0000
  28 O28         -6.4660    -0.3356     1.7482 O.2          1    LIG   0.0000
  29 C29         -7.0654    -2.4385     2.4534 C.2          1    LIG   0.0000
  30 C30         -7.0392    -3.4857     3.3181 C.2          1    LIG   0.0000
  31 C31         -7.8439    -4.5785     2.8999 C.2          1    LIG   0.0000
  32 C32         -8.5187    -4.4424     1.7240 C.2          1    LIG   0.0000
  33 S33         -8.0905    -2.8861     1.1676 S.3          1    LIG   0.0000
  34 C34         -2.6099     1.2878     3.1840 C.ar         1    LIG   0.0000
  35 C35         -1.3580     1.1836     2.5874 C.ar         1    LIG   0.0000
  36 H           -0.7863    -1.6847     5.2516 H            1    LIG   0.0000
  37 H            0.2005    -0.3866     5.3402 H            1    LIG   0.0000
  38 H           -0.9451    -0.4636     4.1790 H            1    LIG   0.0000
  39 H            1.3453    -2.2151     4.3321 H            1    LIG   0.0000
  40 H            0.1997    -2.2922     3.1709 H            1    LIG   0.0000
  41 H            4.0349    -2.4697     2.0299 H            1    LIG   0.0000
  42 H            4.9843    -2.5957     0.7072 H            1    LIG   0.0000
  43 H            5.5720    -1.9198     2.0726 H            1    LIG   0.0000
  44 H            5.8083    -0.4398    -0.3699 H            1    LIG   0.0000
  45 H            7.4224     1.2200     0.0277 H            1    LIG   0.0000
  46 H            7.9733     3.5378     0.2132 H            1    LIG   0.0000
  47 H            6.2504     5.1466     0.6508 H            1    LIG   0.0000
  48 H            3.9870     4.4237     0.8417 H            1    LIG   0.0000
  49 H            0.5000     1.8242     0.7341 H            1    LIG   0.0000
  50 H           -1.5726    -1.9662     1.5409 H            1    LIG   0.0000
  51 H           -3.7274    -1.7748     2.5728 H            1    LIG   0.0000
  52 H           -4.7349     0.5301     4.7973 H            1    LIG   0.0000
  53 H           -5.3666     1.0423     3.3812 H            1    LIG   0.0000
  54 H           -5.4728    -1.6652     4.3895 H            1    LIG   0.0000
  55 H           -6.5066    -3.4870     4.1645 H            1    LIG   0.0000
  56 H           -7.9125    -5.4135     3.4458 H            1    LIG   0.0000
  57 H           -9.1270    -5.1043     1.2860 H            1    LIG   0.0000
  58 H           -2.8866     2.1446     3.6191 H            1    LIG   0.0000
  59 H           -0.7303     1.9620     2.5896 H            1    LIG   0.0000
@<TRIPOS>BOND
   1        1        2 1
   2        2        3 1
   3        3        4 1
   4        4        5 2
   5        4        6 1
   6        6        7 2
   7        7        8 1
   8        7        9 1
   9        9       10 1
  10       10       11 ar
  11       11       12 ar
  12       12       13 ar
  13       13       14 ar
  14       14       15 ar
  15       15       10 ar
  16       15       16 1
  17       16       17 2
  18       17        6 1
  19       17       18 1
  20       18       19 am
  21       19       20 2
  22       19       21 1
  23       21       22 ar
  24       22       23 ar
  25       23       24 ar
  26       24       25 1
  27       25       26 1
  28       26       27 am
  29       27       28 2
  30       27       29 1
  31       29       30 2
  32       30       31 1
  33       31       32 2
  34       32       33 1
  35       33       29 1
  36       24       34 ar
  37       34       35 ar
  38       35       21 ar
  39        1       36 1
  40        1       37 1
  41        1       38 1
  42        2       39 1
  43        2       40 1
  44        8       41 1
  45        8       42 1
  46        8       43 1
  47        9       44 1
  48       11       45 1
  49       12       46 1
  50       13       47 1
  51       14       48 1
  52       18       49 1
  53       22       50 1
  54       23       51 1
  55       25       52 1
  56       25       53 1
  57       26       54 1
  58       30       55 1
  59       31       56 1
  60       32       57 1
  61       34       58 1
  62       35       59 1

@<TRIPOS>MOLECULE

  59   62
SMALL
USER_CHARGES
@<TRIPOS>ATOM
   1 C1          -0.2937    -0.9957     4.7199 C.3          1    LIG   0.0000
   2 C2           0.6939    -1.6830     3.7912 C.3          1    LIG   0.0000
   3 O3           1.3933    -0.7047     3.0362 O.3          1    LIG   0.0000
   4 C4           2.2801    -1.1712     2.1924 C.2          1    LIG   0.0000
   5 O5           2.4546    -2.3548     2.0987 O.2          1    LIG   0.0000
   6 C6           3.0523    -0.2556     1.3698 C.2          1    LIG   0.0000
   7 C7           4.2834    -0.6615     1.0279 C.2          1    LIG   0.0000
   8 C8           4.7595    -2.0291     1.4999 C.3          1    LIG   0.0000
   9 N9           5.2228     0.0668     0.2630 N.pl3        1    LIG   0.0000
  10 C10          5.3828     1.4648     0.3400 C.ar         1    LIG   0.0000
  11 C11          6.7010     1.8896     0.2041 C.ar         1    LIG   0.0000
  12 C12          7.0235     3.2409     0.3120 C.ar         1    LIG   0.0000
  13 C13          6.0237     4.1771     0.5571 C.ar         1    LIG   0.0000
  14 C14          4.7041     3.7481     0.6704 C.ar         1    LIG   0.0000
  15 C15          4.3525     2.4000     0.5516 C.ar         1    LIG   0.0000
  16 N16          2.9737     2.0971     0.6460 N.2          1    LIG   0.0000
  17 C17          2.3977     1.0000     1.0000 C.2          1    LIG   0.0000
  18 N18          1.0000     1.0000     1.0000 N.am         1    LIG   0.0000
  19 C19          0.3150    -0.1291     1.3643 C.2          1    LIG   0.0000
  20 O20          0.7944    -1.2115     1.1676 O.2          1    LIG   0.0000
  21 C21         -0.9891    -0.0164     1.9876 C.ar         1    LIG   0.0000
  22 C22         -1.8496    -1.1092     1.9754 C.ar         1    LIG   0.0000
  23 C23         -3.1000    -0.9962     2.5743 C.ar         1    LIG   0.0000
  24 C24         -3.4774     0.1998     3.1753 C.ar         1    LIG   0.0000
  25 C25         -4.8450     0.3148     3.8270 C.3          1    LIG   0.0000
  26 N26         -5.5635    -0.9600     3.6864 N.am         1    LIG   0.0000
  27 C27         -6.3572    -1.1819     2.5920 C.2          1    LIG   0.0000
  28 O28         -6.9437    -2.2225     2.4772 O.2          1    LIG   0.0000
  29 C29         -6.4886    -0.1599     1.5730 C.2          1    LIG   0.0000
  30 C30         -5.6419     0.8785     1.3498 C.2          1    LIG   0.0000
  31 C31         -6.0465     1.7101     0.2720 C.2          1    LIG   0.0000
  32 C32         -7.1937     1.3718    -0.3805 C.2          1    LIG   0.0000
  33 S33         -7.7416    -0.0303     0.4252 S.3          1    LIG   0.0000
  34 C34         -2.6099     1.2878     3.1840 C.ar         1    LIG   0.0000
  35 C35         -1.3580     1.1836     2.5874 C.ar         1    LIG   0.0000
  36 H           -0.7863    -1.6847     5.2516 H            1    LIG   0.0000
  37 H            0.2005    -0.3866     5.3402 H            1    LIG   0.0000
  38 H           -0.9451    -0.4636     4.1790 H            1    LIG   0.0000
  39 H            1.3453    -2.2151     4.3321 H            1    LIG   0.0000
  40 H            0.1997    -2.2922     3.1709 H            1    LIG   0.0000
  41 H            4.0349    -2.4697     2.0299 H            1    LIG   0.0000
  42 H            4.9843    -2.5957     0.7072 H            1    LIG   0.0000
  43 H            5.5720    -1.9198     2.0726 H            1    LIG   0.0000
  44 H            5.8083    -0.4398    -0.3699 H            1    LIG   0.0000
  45 H            7.4224     1.2200     0.0277 H            1    LIG   0.0000
  46 H            7.9733     3.5378     0.2132 H            1    LIG   0.0000
  47 H            6.2504     5.1466     0.6508 H            1    LIG   0.0000
  48 H            3.9870     4.4237     0.8417 H            1    LIG   0.0000
  49 H            0.5000     1.8242     0.7341 H            1    LIG   0.0000
  50 H           -1.5726    -1.9662     1.5409 H            1    LIG   0.0000
  51 H           -3.7274    -1.7748     2.5728 H            1    LIG   0.0000
  52 H           -4.7349     0.5301     4.7973 H            1    LIG   0.0000
  53 H           -5.3666     1.0423     3.3812 H            1    LIG   0.0000
  54 H           -5.4728    -1.6652     4.3895 H            1    LIG   0.0000
  55 H           -4.8164     1.0412     1.8902 H            1    LIG   0.0000
  56 H           -5.5114     2.5110     0.0031 H            1    LIG   0.0000
  57 H           -7.6187     1.8390    -1.1559 H            1    LIG   0.0000
  58 H           -2.8866     2.1446     3.6191 H            1    LIG   0.0000
  59 H           -0.7303     1.9620     2.5896 H            1    LIG   0.0000
@<TRIPOS>BOND
   1        1        2 1
   2        2        3 1
   3        3        4 1
   4        4        5 2
   5        4        6 1
   6        6        7 2
   7        7        8 1
   8        7        9 1
   9        9       10 1
  10       10       11 ar
  11       11       12 ar
  12       12       13 ar
  13       13       14 ar
  14       14       15 ar
  15       15       10 ar
  16       15       16 1
  17       16       17 2
  18       17        6 1
  19       17       18 1
  20       18       19 am
  21       19       20 2
  22       19       21 1
  23       21       22 ar
  24       22       23 ar
  25       23       24 ar
  26       24       25 1
  27       25       26 1
  28       26       27 am
  29       27       28 2
  30       27       29 1
  31       29       30 2
  32       30       31 1
  33       31       32 2
  34       32       33 1
  35       33       29 1
  36       24       34 ar
  37       34       35 ar
  38       35       21 ar
  39        1       36 1
  40        1       37 1
  41        1       38 1
  42        2       39 1
  43        2       40 1
  44        8       41 1
  45        8       42 1
  46        8       43 1
  47        9       44 1
  48       11       45 1
  49       12       46 1
  50       13       47 1
  51       14       48 1
  52       18       49 1
  53       22       50 1
  54       23       51 1
  55       25       52 1
  56       25       53 1
  57       26       54 1
  58       30       55 1
  59       31       56 1
  60       32       57 1
  61       34       58 1
  62       35       59 1

@<TRIPOS>MOLECULE

  59   62
SMALL
USER_CHARGES
@<TRIPOS>ATOM
   1 C1          -0.2937    -0.9957     4.7199 C.3          1    LIG   0.0000
   2 C2           0.6939    -1.6830     3.7912 C.3          1    LIG   0.0000
   3 O3           1.3933    -0.7047     3.0362 O.3          1    LIG   0.0000
   4 C4           2.2801    -1.1712     2.1924 C.2          1    LIG   0.0000
   5 O5           2.4546    -2.3548     2.0987 O.2          1    LIG   0.0000
   6 C6           3.0523    -0.2556     1.3698 C.2          1    LIG   0.0000
   7 C7           4.2834    -0.6615     1.0279 C.2          1    LIG   0.0000
   8 C8           4.7595    -2.0291     1.4999 C.3          1    LIG   0.0000
   9 N9           5.2228     0.0668     0.2630 N.pl3        1    LIG   0.0000
  10 C10          5.3828     1.4648     0.3400 C.ar         1    LIG   0.0000
  11 C11          6.7010     1.8896     0.2041 C.ar         1    LIG   0.0000
  12 C12          7.0235     3.2409     0.3120 C.ar         1    LIG   0.0000
  13 C13          6.0237     4.1771     0.5571 C.ar         1    LIG   0.0000
  14 C14          4.7041     3.7481     0.6704 C.ar         1    LIG   0.0000
  15 C15          4.3525     2.4000     0.5516 C.ar         1    LIG   0.0000
  16 N16          2.9737     2.0971     0.6460 N.2          1    LIG   0.0000
  17 C17          2.3977     1.0000     1.0000 C.2          1    LIG   0.0000
  18 N18          1.0000     1.0000     1.0000 N.am         1    LIG   0.0000
  19 C19          0.3150    -0.1291     1.3643 C.2          1    LIG   0.0000
  20 O20          0.7944    -1.2115     1.1676 O.2          1    LIG   0.0000
  21 C21         -0.9891    -0.0164     1.9876 C.ar         1    LIG   0.0000
  22 C22         -1.8496    -1.1092     1.9754 C.ar         1    LIG   0.0000
  23 C23         -3.1000    -0.9962     2.5743 C.ar         1    LIG   0.0000
  24 C24         -3.4774     0.1998     3.1753 C.ar         1    LIG   0.0000
  25 C25         -4.8450     0.3148     3.8270 C.3          1    LIG   0.0000
  26 N26         -5.0088     1.6636     4.3879 N.am         1    LIG   0.0000
  27 C27         -4.6261     1.9201     5.6781 C.2          1    LIG   0.0000
  28 O28         -4.1573     1.0435     6.3504 O.2          1    LIG   0.0000
  29 C29         -4.7875     3.2497     6.2311 C.2          1    LIG   0.0000
  30 C30         -5.2964     4.3375     5.5963 C.2          1    LIG   0.0000
  31 C31         -5.3240     5.5003     6.4111 C.2          1    LIG   0.0000
  32 C32         -4.8533     5.3814     7.6842 C.2          1    LIG   0.0000
  33 S33         -4.3698     3.7484     7.8063 S.3          1    LIG   0.0000
  34 C34         -2.6099     1.2878     3.1840 C.ar         1    LIG   0.0000
  35 C35         -1.3580     1.1836     2.5874 C.ar         1    LIG   0.0000
  36 H           -0.7863    -1.6847     5.2516 H            1    LIG   0.0000
  37 H            0.2005    -0.3866     5.3402 H            1    LIG   0.0000
  38 H           -0.9451    -0.4636     4.1790 H            1    LIG   0.0000
  39 H            1.3453    -2.2151     4.3321 H            1    LIG   0.0000
  40 H            0.1997    -2.2922     3.1709 H            1    LIG   0.0000
  41 H            4.0349    -2.4697     2.0299 H            1    LIG   0.0000
  42 H            4.9843    -2.5957     0.7072 H            1    LIG   0.0000
  43 H            5.5720    -1.9198     2.0726 H            1    LIG   0.0000
  44 H            5.8083    -0.4398    -0.3699 H            1    LIG   0.0000
  45 H            7.4224     1.2200     0.0277 H            1    LIG   0.0000
  46 H            7.9733     3.5378     0.2132 H            1    LIG   0.0000
  47 H            6.2504     5.1466     0.6508 H            1    LIG   0.0000
  48 H            3.9870     4.4237     0.8417 H            1    LIG   0.0000
  49 H            0.5000     1.8242     0.7341 H            1    LIG   0.0000
  50 H           -1.5726    -1.9662     1.5409 H            1    LIG   0.0000
  51 H           -3.7274    -1.7748     2.5728 H            1    LIG   0.0000
  52 H           -5.5553     0.1499     3.1426 H            1    LIG   0.0000
  53 H           -4.9236    -0.3623     4.5587 H            1    LIG   0.0000
  54 H           -5.3995     2.3941     3.8277 H            1    LIG   0.0000
  55 H           -5.6192     4.3212     4.6500 H            1    LIG   0.0000
  56 H           -5.6744     6.3705     6.0648 H            1    LIG   0.0000
  57 H           -4.8025     6.0901     8.3879 H            1    LIG   0.0000
  58 H           -2.8866     2.1446     3.6191 H            1    LIG   0.0000
  59 H           -0.7303     1.9620     2.5896 H            1    LIG   0.0000
@<TRIPOS>BOND
   1        1        2 1
   2        2        3 1
   3        3        4 1
   4        4        5 2
   5        4        6 1
   6        6        7 2
   7        7        8 1
   8        7        9 1
   9        9       10 1
  10       10       11 ar
  11       11       12 ar
  12       12       13 ar
  13       13       14 ar
  14       14       15 ar
  15       15       10 ar
  16       15       16 1
  17       16       17 2
  18       17        6 1
  19       17       18 1
  20       18       19 am
  21       19       20 2
  22       19       21 1
  23       21       22 ar
  24       22       23 ar
  25       23       24 ar
  26       24       25 1
  27       25       26 1
  28       26       27 am
  29       27       28 2
  30       27       29 1
  31       29       30 2
  32       30       31 1
  33       31       32 2
  34       32       33 1
  35       33       29 1
  36       24       34 ar
  37       34       35 ar
  38       35       21 ar
  39        1       36 1
  40        1       37 1
  41        1       38 1
  42        2       39 1
  43        2       40 1
  44        8       41 1
  45        8       42 1
  46        8       43 1
  47        9       44 1
  48       11       45 1
  49       12       46 1
  50       13       47 1
  51       14       48 1
  52       18       49 1
  53       22       50 1
  54       23       51 1
  55       25       52 1
  56       25       53 1
  57       26       54 1
  58       30       55 1
  59       31       56 1
  60       32       57 1
  61       34       58 1
  62       35       59 1

@<TRIPOS>MOLECULE

  59   62
SMALL
USER_CHARGES
@<TRIPOS>ATOM
   1 C1          -0.2937    -0.9957     4.7199 C.3          1    LIG   0.0000
   2 C2           0.6939    -1.6830     3.7912 C.3          1    LIG   0.0000
   3 O3           1.3933    -0.7047     3.0362 O.3          1    LIG   0.0000
   4 C4           2.2801    -1.1712     2.1924 C.2          1    LIG   0.0000
   5 O5           2.4546    -2.3548     2.0987 O.2          1    LIG   0.0000
   6 C6           3.0523    -0.2556     1.3698 C.2          1    LIG   0.0000
   7 C7           4.2834    -0.6615     1.0279 C.2          1    LIG   0.0000
   8 C8           4.7595    -2.0291     1.4999 C.3          1    LIG   0.0000
   9 N9           5.2228     0.0668     0.2630 N.pl3        1    LIG   0.0000
  10 C10          5.3828     1.4648     0.3400 C.ar         1    LIG   0.0000
  11 C11          6.7010     1.8896     0.2041 C.ar         1    LIG   0.0000
  12 C12          7.0235     3.2409     0.3120 C.ar         1    LIG   0.0000
  13 C13          6.0237     4.1771     0.5571 C.ar         1    LIG   0.0000
  14 C14          4.7041     3.7481     0.6704 C.ar         1    LIG   0.0000
  15 C15          4.3525     2.4000     0.5516 C.ar         1    LIG   0.0000
  16 N16          2.9737     2.0971     0.6460 N.2          1    LIG   0.0000
  17 C17          2.3977     1.0000     1.0000 C.2          1    LIG   0.0000
  18 N18          1.0000     1.0000     1.0000 N.am         1    LIG   0.0000
  19 C19          0.3150    -0.1291     1.3643 C.2          1    LIG   0.0000
  20 O20          0.7944    -1.2115     1.1676 O.2          1    LIG   0.0000
  21 C21         -0.9891    -0.0164     1.9876 C.ar         1    LIG   0.0000
  22 C22         -1.8496    -1.1092     1.9754 C.ar         1    LIG   0.0000
  23 C23         -3.1000    -0.9962     2.5743 C.ar         1    LIG   0.0000
  24 C24         -3.4774     0.1998     3.1753 C.ar         1    LIG   0.0000
  25 C25         -4.8450     0.3148     3.8270 C.3          1    LIG   0.0000
  26 N26         -5.0088     1.6636     4.3879 N.am         1    LIG   0.0000
  27 C27         -4.6261     1.9201     5.6781 C.2          1    LIG   0.0000
  28 O28         -4.7598     3.0212     6.1360 O.2          1    LIG   0.0000
  29 C29         -4.0600     0.8616     6.4899 C.2          1    LIG   0.0000
  30 C30         -3.5035    -0.2948     6.0446 C.2          1    LIG   0.0000
  31 C31         -3.0356    -1.1317     7.0922 C.2          1    LIG   0.0000
  32 C32         -3.1977    -0.6833     8.3686 C.2          1    LIG   0.0000
  33 S33         -3.9689     0.8296     8.1914 S.3          1    LIG   0.0000
  34 C34         -2.6099     1.2878     3.1840 C.ar         1    LIG   0.0000
  35 C35         -1.3580     1.1836     2.5874 C.ar         1    LIG   0.0000
  36 H           -0.7863    -1.6847     5.2516 H            1    LIG   0.0000
  37 H            0.2005    -0.3866     5.3402 H            1    LIG   0.0000
  38 H           -0.9451    -0.4636     4.1790 H            1    LIG   0.0000
  39 H            1.3453    -2.2151     4.3321 H            1    LIG   0.0000
  40 H            0.1997    -2.2922     3.1709 H            1    LIG   0.0000
  41 H            4.0349    -2.4697     2.0299 H            1    LIG   0.0000
  42 H            4.9843    -2.5957     0.7072 H            1    LIG   0.0000
  43 H            5.5720    -1.9198     2.0726 H            1    LIG   0.0000
  44 H            5.8083    -0.4398    -0.3699 H            1    LIG   0.0000
  45 H            7.4224     1.2200     0.0277 H            1    LIG   0.0000
  46 H            7.9733     3.5378     0.2132 H            1    LIG   0.0000
  47 H            6.2504     5.1466     0.6508 H            1    LIG   0.0000
  48 H            3.9870     4.4237     0.8417 H            1    LIG   0.0000
  49 H            0.5000     1.8242     0.7341 H            1    LIG   0.0000
  50 H           -1.5726    -1.9662     1.5409 H            1    LIG   0.0000
  51 H           -3.7274    -1.7748     2.5728 H            1    LIG   0.0000
  52 H           -5.5553     0.1499     3.1426 H            1    LIG   0.0000
  53 H           -4.9236    -0.3623     4.5587 H            1    LIG   0.0000
  54 H           -5.3995     2.3941     3.8277 H            1    LIG   0.0000
  55 H           -3.4306    -0.5329     5.0761 H            1    LIG   0.0000
  56 H           -2.6049    -2.0137     6.9010 H            1    LIG   0.0000
  57 H           -2.9263    -1.1376     9.2171 H            1    LIG   0.0000
  58 H           -2.8866     2.1446     3.6191 H            1    LIG   0.0000
  59 H           -0.7303     1.9620     2.5896 H            1    LIG   0.0000
@<TRIPOS>BOND
   1        1        2 1
   2        2        3 1
   3        3        4 1
   4        4        5 2
   5        4        6 1
   6        6        7 2
   7        7        8 1
   8        7        9 1
   9        9       10 1
  10       10       11 ar
  11       11       12 ar
  12       12       13 ar
  13       13       14 ar
  14       14       15 ar
  15       15       10 ar
  16       15       16 1
  17       16       17 2
  18       17        6 1
  19       17       18 1
  20       18       19 am
  21       19       20 2
  22       19       21 1
  23       21       22 ar
  24       22       23 ar
  25       23       24 ar
  26       24       25 1
  27       25       26 1
  28       26       27 am
  29       27       28 2
  30       27       29 1
  31       29       30 2
  32       30       31 1
  33       31       32 2
  34       32       33 1
  35       33       29 1
  36       24       34 ar
  37       34       35 ar
  38       35       21 ar
  39        1       36 1
  40        1       37 1
  41        1       38 1
  42        2       39 1
  43        2       40 1
  44        8       41 1
  45        8       42 1
  46        8       43 1
  47        9       44 1
  48       11       45 1
  49       12       46 1
  50       13       47 1
  51       14       48 1
  52       18       49 1
  53       22       50 1
  54       23       51 1
  55       25       52 1
  56       25       53 1
  57       26       54 1
  58       30       55 1
  59       31       56 1
  60       32       57 1
  61       34       58 1
  62       35       59 1

@<TRIPOS>MOLECULE

  59   62
SMALL
USER_CHARGES
@<TRIPOS>ATOM
   1 C1          -0.2937    -0.9957     4.7199 C.3          1    LIG   0.0000
   2 C2           0.6939    -1.6830     3.7912 C.3          1    LIG   0.0000
   3 O3           1.3933    -0.7047     3.0362 O.3          1    LIG   0.0000
   4 C4           2.2801    -1.1712     2.1924 C.2          1    LIG   0.0000
   5 O5           2.4546    -2.3548     2.0987 O.2          1    LIG   0.0000
   6 C6           3.0523    -0.2556     1.3698 C.2          1    LIG   0.0000
   7 C7           4.2834    -0.6615     1.0279 C.2          1    LIG   0.0000
   8 C8           4.7595    -2.0291     1.4999 C.3          1    LIG   0.0000
   9 N9           5.2228     0.0668     0.2630 N.pl3        1    LIG   0.0000
  10 C10          5.3828     1.4648     0.3400 C.ar         1    LIG   0.0000
  11 C11          6.7010     1.8896     0.2041 C.ar         1    LIG   0.0000
  12 C12          7.0235     3.2409     0.3120 C.ar         1    LIG   0.0000
  13 C13          6.0237     4.1771     0.5571 C.ar         1    LIG   0.0000
  14 C14          4.7041     3.7481     0.6704 C.ar         1    LIG   0.0000
  15 C15          4.3525     2.4000     0.5516 C.ar         1    LIG   0.0000
  16 N16          2.9737     2.0971     0.6460 N.2          1    LIG   0.0000
  17 C17          2.3977     1.0000     1.0000 C.2          1    LIG   0.0000
  18 N18          1.0000     1.0000     1.0000 N.am         1    LIG   0.0000
  19 C19          0.3150    -0.1291     1.3643 C.2          1    LIG   0.0000
  20 O20          0.7944    -1.2115     1.1676 O.2          1    LIG   0.0000
  21 C21         -0.9891    -0.0164     1.9876 C.ar         1    LIG   0.0000
  22 C22         -1.8496    -1.1092     1.9754 C.ar         1    LIG   0.0000
  23 C23         -3.1000    -0.9962     2.5743 C.ar         1    LIG   0.0000
  24 C24         -3.4774     0.1998     3.1753 C.ar         1    LIG   0.0000
  25 C25         -4.8450     0.3148     3.8270 C.3          1    LIG   0.0000
  26 N26         -4.7500    -0.0829     5.2390 N.am         1    LIG   0.0000
  27 C27         -4.9432    -1.3912     5.5967 C.2          1    LIG   0.0000
  28 O28         -5.1899    -2.2125     4.7573 O.2          1    LIG   0.0000
  29 C29         -4.8495    -1.7831     6.9886 C.2          1    LIG   0.0000
  30 C30         -4.5762    -0.9732     8.0443 C.2          1    LIG   0.0000
  31 C31         -4.5553    -1.6599     9.2872 C.2          1    LIG   0.0000
  32 C32         -4.8046    -2.9992     9.2643 C.2          1    LIG   0.0000
  33 S33         -5.0584    -3.3548     7.6138 S.3          1    LIG   0.0000
  34 C34         -2.6099     1.2878     3.1840 C.ar         1    LIG   0.0000
  35 C35         -1.3580     1.1836     2.5874 C.ar         1    LIG   0.0000
  36 H           -0.7863    -1.6847     5.2516 H            1    LIG   0.0000
  37 H            0.2005    -0.3866     5.3402 H            1    LIG   0.0000
  38 H           -0.9451    -0.4636     4.1790 H            1    LIG   0.0000
  39 H            1.3453    -2.2151     4.3321 H            1    LIG   0.0000
  40 H            0.1997    -2.2922     3.1709 H            1    LIG   0.0000
  41 H            4.0349    -2.4697     2.0299 H            1    LIG   0.0000
  42 H            4.9843    -2.5957     0.7072 H            1    LIG   0.0000
  43 H            5.5720    -1.9198     2.0726 H            1    LIG   0.0000
  44 H            5.8083    -0.4398    -0.3699 H            1    LIG   0.0000
  45 H            7.4224     1.2200     0.0277 H            1    LIG   0.0000
  46 H            7.9733     3.5378     0.2132 H            1    LIG   0.0000
  47 H            6.2504     5.1466     0.6508 H            1    LIG   0.0000
  48 H            3.9870     4.4237     0.8417 H            1    LIG   0.0000
  49 H            0.5000     1.8242     0.7341 H            1    LIG   0.0000
  50 H           -1.5726    -1.9662     1.5409 H            1    LIG   0.0000
  51 H           -3.7274    -1.7748     2.5728 H            1    LIG   0.0000
  52 H           -5.1641     1.2607     3.7678 H            1    LIG   0.0000
  53 H           -5.4909    -0.2850     3.3545 H            1    LIG   0.0000
  54 H           -4.5444     0.6016     5.9384 H            1    LIG   0.0000
  55 H           -4.4068     0.0083     7.9552 H            1    LIG   0.0000
  56 H           -4.3653    -1.1802    10.1438 H            1    LIG   0.0000
  57 H           -4.8327    -3.6310    10.0390 H            1    LIG   0.0000
  58 H           -2.8866     2.1446     3.6191 H            1    LIG   0.0000
  59 H           -0.7303     1.9620     2.5896 H            1    LIG   0.0000
@<TRIPOS>BOND
   1        1        2 1
   2        2        3 1
   3        3        4 1
   4        4        5 2
   5        4        6 1
   6        6        7 2
   7        7        8 1
   8        7        9 1
   9        9       10 1
  10       10       11 ar
  11       11       12 ar
  12       12       13 ar
  13       13       14 ar
  14       14       15 ar
  15       15       10 ar
  16       15       16 1
  17       16       17 2
  18       17        6 1
  19       17       18 1
  20       18       19 am
  21       19       20 2
  22       19       21 1
  23       21       22 ar
  24       22       23 ar
  25       23       24 ar
  26       24       25 1
  27       25       26 1
  28       26       27 am
  29       27       28 2
  30       27       29 1
  31       29       30 2
  32       30       31 1
  33       31       32 2
  34       32       33 1
  35       33       29 1
  36       24       34 ar
  37       34       35 ar
  38       35       21 ar
  39        1       36 1
  40        1       37 1
  41        1       38 1
  42        2       39 1
  43        2       40 1
  44        8       41 1
  45        8       42 1
  46        8       43 1
  47        9       44 1
  48       11       45 1
  49       12       46 1
  50       13       47 1
  51       14       48 1
  52       18       49 1
  53       22       50 1
  54       23       51 1
  55       25       52 1
  56       25       53 1
  57       26       54 1
  58       30       55 1
  59       31       56 1
  60       32       57 1
  61       34       58 1
  62       35       59 1

@<TRIPOS>MOLECULE

  59   62
SMALL
USER_CHARGES
@<TRIPOS>ATOM
   1 C1          -0.2937    -0.9957     4.7199 C.3          1    LIG   0.0000
   2 C2           0.6939    -1.6830     3.7912 C.3          1    LIG   0.0000
   3 O3           1.3933    -0.7047     3.0362 O.3          1    LIG   0.0000
   4 C4           2.2801    -1.1712     2.1924 C.2          1    LIG   0.0000
   5 O5           2.4546    -2.3548     2.0987 O.2          1    LIG   0.0000
   6 C6           3.0523    -0.2556     1.3698 C.2          1    LIG   0.0000
   7 C7           4.2834    -0.6615     1.0279 C.2          1    LIG   0.0000
   8 C8           4.7595    -2.0291     1.4999 C.3          1    LIG   0.0000
   9 N9           5.2228     0.0668     0.2630 N.pl3        1    LIG   0.0000
  10 C10          5.3828     1.4648     0.3400 C.ar         1    LIG   0.0000
  11 C11          6.7010     1.8896     0.2041 C.ar         1    LIG   0.0000
  12 C12          7.0235     3.2409     0.3120 C.ar         1    LIG   0.0000
  13 C13          6.0237     4.1771     0.5571 C.ar         1    LIG   0.0000
  14 C14          4.7041     3.7481     0.6704 C.ar         1    LIG   0.0000
  15 C15          4.3525     2.4000     0.5516 C.ar         1    LIG   0.0000
  16 N16          2.9737     2.0971     0.6460 N.2          1    LIG   0.0000
  17 C17          2.3977     1.0000     1.0000 C.2          1    LIG   0.0000
  18 N18          1.0000     1.0000     1.0000 N.am         1    LIG   0.0000
  19 C19          0.3150    -0.1291     1.3643 C.2          1    LIG   0.0000
  20 O20          0.7944    -1.2115     1.1676 O.2          1    LIG   0.0000
  21 C21         -0.9891    -0.0164     1.9876 C.ar         1    LIG   0.0000
  22 C22         -1.8496    -1.1092     1.9754 C.ar         1    LIG   0.0000
  23 C23         -3.1000    -0.9962     2.5743 C.ar         1    LIG   0.0000
  24 C24         -3.4774     0.1998     3.1753 C.ar         1    LIG   0.0000
  25 C25         -4.8450     0.3148     3.8270 C.3          1    LIG   0.0000
  26 N26         -4.7500    -0.0829     5.2390 N.am         1    LIG   0.0000
  27 C27         -4.9432    -1.3912     5.5967 C.2          1    LIG   0.0000
  28 O28         -5.2228    -1.6682     6.7302 O.2          1    LIG   0.0000
  29 C29         -4.8097    -2.4404     4.6061 C.2          1    LIG   0.0000
  30 C30         -5.0631    -2.3388     3.2755 C.2          1    LIG   0.0000
  31 C31         -4.8349    -3.5483     2.5672 C.2          1    LIG   0.0000
  32 C32         -4.4041    -4.6215     3.2877 C.2          1    LIG   0.0000
  33 S33         -4.3065    -4.0435     4.8913 S.3          1    LIG   0.0000
  34 C34         -2.6099     1.2878     3.1840 C.ar         1    LIG   0.0000
  35 C35         -1.3580     1.1836     2.5874 C.ar         1    LIG   0.0000
  36 H           -0.7863    -1.6847     5.2516 H            1    LIG   0.0000
  37 H            0.2005    -0.3866     5.3402 H            1    LIG   0.0000
  38 H           -0.9451    -0.4636     4.1790 H            1    LIG   0.0000
  39 H            1.3453    -2.2151     4.3321 H            1    LIG   0.0000
  40 H            0.1997    -2.2922     3.1709 H            1    LIG   0.0000
  41 H            4.0349    -2.4697     2.0299 H            1    LIG   0.0000
  42 H            4.9843    -2.5957     0.7072 H            1    LIG   0.0000
  43 H            5.5720    -1.9198     2.0726 H            1    LIG   0.0000
  44 H            5.8083    -0.4398    -0.3699 H            1    LIG   0.0000
  45 H            7.4224     1.2200     0.0277 H            1    LIG   0.0000
  46 H            7.9733     3.5378     0.2132 H            1    LIG   0.0000
  47 H            6.2504     5.1466     0.6508 H            1    LIG   0.0000
  48 H            3.9870     4.4237     0.8417 H            1    LIG   0.0000
  49 H            0.5000     1.8242     0.7341 H            1    LIG   0.0000
  50 H           -1.5726    -1.9662     1.5409 H            1    LIG   0.0000
  51 H           -3.7274    -1.7748     2.5728 H            1    LIG   0.0000
  52 H           -5.1641     1.2607     3.7678 H            1    LIG   0.0000
  53 H           -5.4909    -0.2850     3.3545 H            1    LIG   0.0000
  54 H           -4.5444     0.6016     5.9384 H            1    LIG   0.0000
  55 H           -5.3788    -1.4965     2.8384 H            1    LIG   0.0000
  56 H           -4.9843    -3.6099     1.5804 H            1    LIG   0.0000
  57 H           -4.1928    -5.5398     2.9530 H            1    LIG   0.0000
  58 H           -2.8866     2.1446     3.6191 H            1    LIG   0.0000
  59 H           -0.7303     1.9620     2.5896 H            1    LIG   0.0000
@<TRIPOS>BOND
   1        1        2 1
   2        2        3 1
   3        3        4 1
   4        4        5 2
   5        4        6 1
   6        6        7 2
   7        7        8 1
   8        7        9 1
   9        9       10 1
  10       10       11 ar
  11       11       12 ar
  12       12       13 ar
  13       13       14 ar
  14       14       15 ar
  15       15       10 ar
  16       15       16 1
  17       16       17 2
  18       17        6 1
  19       17       18 1
  20       18       19 am
  21       19       20 2
  22       19       21 1
  23       21       22 ar
  24       22       23 ar
  25       23       24 ar
  26       24       25 1
  27       25       26 1
  28       26       27 am
  29       27       28 2
  30       27       29 1
  31       29       30 2
  32       30       31 1
  33       31       32 2
  34       32       33 1
  35       33       29 1
  36       24       34 ar
  37       34       35 ar
  38       35       21 ar
  39        1       36 1
  40        1       37 1
  41        1       38 1
  42        2       39 1
  43        2       40 1
  44        8       41 1
  45        8       42 1
  46        8       43 1
  47        9       44 1
  48       11       45 1
  49       12       46 1
  50       13       47 1
  51       14       48 1
  52       18       49 1
  53       22       50 1
  54       23       51 1
  55       25       52 1
  56       25       53 1
  57       26       54 1
  58       30       55 1
  59       31       56 1
  60       32       57 1
  61       34       58 1
  62       35       59 1

@<TRIPOS>MOLECULE

  59   62
SMALL
USER_CHARGES
@<TRIPOS>ATOM
   1 C1          -0.2937    -0.9957     4.7199 C.3          1    LIG   0.0000
   2 C2           0.6939    -1.6830     3.7912 C.3          1    LIG   0.0000
   3 O3           1.3933    -0.7047     3.0362 O.3          1    LIG   0.0000
   4 C4           2.2801    -1.1712     2.1924 C.2          1    LIG   0.0000
   5 O5           2.4546    -2.3548     2.0987 O.2          1    LIG   0.0000
   6 C6           3.0523    -0.2556     1.3698 C.2          1    LIG   0.0000
   7 C7           4.2834    -0.6615     1.0279 C.2          1    LIG   0.0000
   8 C8           4.7595    -2.0291     1.4999 C.3          1    LIG   0.0000
   9 N9           5.2228     0.0668     0.2630 N.pl3        1    LIG   0.0000
  10 C10          5.3828     1.4648     0.3400 C.ar         1    LIG   0.0000
  11 C11          6.7010     1.8896     0.2041 C.ar         1    LIG   0.0000
  12 C12          7.0235     3.2409     0.3120 C.ar         1    LIG   0.0000
  13 C13          6.0237     4.1771     0.5571 C.ar         1    LIG   0.0000
  14 C14          4.7041     3.7481     0.6704 C.ar         1    LIG   0.0000
  15 C15          4.3525     2.4000     0.5516 C.ar         1    LIG   0.0000
  16 N16          2.9737     2.0971     0.6460 N.2          1    LIG   0.0000
  17 C17          2.3977     1.0000     1.0000 C.2          1    LIG   0.0000
  18 N18          1.0000     1.0000     1.0000 N.am         1    LIG   0.0000
  19 C19          0.3150    -0.1291     1.3643 C.2          1    LIG   0.0000
  20 O20          0.7944    -1.2115     1.1676 O.2          1    LIG   0.0000
  21 C21         -0.9891    -0.0164     1.9876 C.ar         1    LIG   0.0000
  22 C22         -1.8496    -1.1092     1.9754 C.ar         1    LIG   0.0000
  23 C23         -3.1000    -0.9962     2.5743 C.ar         1    LIG   0.0000
  24 C24         -3.4774     0.1998     3.1753 C.ar         1    LIG   0.0000
  25 C25         -4.8450     0.3148     3.8270 C.3          1    LIG   0.0000
  26 N26         -4.7500    -0.0829     5.2390 N.am         1    LIG   0.0000
  27 C27         -5.8656    -0.0595     6.0338 C.2          1    LIG   0.0000
  28 O28         -5.7881    -0.3841     7.1864 O.2          1    LIG   0.0000
  29 C29         -7.1394     0.3572     5.4825 C.2          1    LIG   0.0000
  30 C30         -7.3819     0.7529     4.2059 C.2          1    LIG   0.0000
  31 C31         -8.7395     1.0996     3.9747 C.2          1    LIG   0.0000
  32 C32         -9.5984     0.9939     5.0271 C.2          1    LIG   0.0000
  33 S33         -8.6225     0.4476     6.3172 S.3          1    LIG   0.0000
  34 C34         -2.6099     1.2878     3.1840 C.ar         1    LIG   0.0000
  35 C35         -1.3580     1.1836     2.5874 C.ar         1    LIG   0.0000
  36 H           -0.7863    -1.6847     5.2516 H            1    LIG   0.0000
  37 H            0.2005    -0.3866     5.3402 H            1    LIG   0.0000
  38 H           -0.9451    -0.4636     4.1790 H            1    LIG   0.0000
  39 H            1.3453    -2.2151     4.3321 H            1    LIG   0.0000
  40 H            0.1997    -2.2922     3.1709 H            1    LIG   0.0000
  41 H            4.0349    -2.4697     2.0299 H            1    LIG   0.0000
  42 H            4.9843    -2.5957     0.7072 H            1    LIG   0.0000
  43 H            5.5720    -1.9198     2.0726 H            1    LIG   0.0000
  44 H            5.8083    -0.4398    -0.3699 H            1    LIG   0.0000
  45 H            7.4224     1.2200     0.0277 H            1    LIG   0.0000
  46 H            7.9733     3.5378     0.2132 H            1    LIG   0.0000
  47 H            6.2504     5.1466     0.6508 H            1    LIG   0.0000
  48 H            3.9870     4.4237     0.8417 H            1    LIG   0.0000
  49 H            0.5000     1.8242     0.7341 H            1    LIG   0.0000
  50 H           -1.5726    -1.9662     1.5409 H            1    LIG   0.0000
  51 H           -3.7274    -1.7748     2.5728 H            1    LIG   0.0000
  52 H           -5.1641     1.2607     3.7678 H            1    LIG   0.0000
  53 H           -5.4909    -0.2850     3.3545 H            1    LIG   0.0000
  54 H           -3.8710    -0.3704     5.6194 H            1    LIG   0.0000
  55 H           -6.6753     0.7959     3.4997 H            1    LIG   0.0000
  56 H           -9.0523     1.4085     3.0765 H            1    LIG   0.0000
  57 H          -10.5786     1.1915     5.0408 H            1    LIG   0.0000
  58 H           -2.8866     2.1446     3.6191 H            1    LIG   0.0000
  59 H           -0.7303     1.9620     2.5896 H            1    LIG   0.0000
@<TRIPOS>BOND
   1        1        2 1
   2        2        3 1
   3        3        4 1
   4        4        5 2
   5        4        6 1
   6        6        7 2
   7        7        8 1
   8        7        9 1
   9        9       10 1
  10       10       11 ar
  11       11       12 ar
  12       12       13 ar
  13       13       14 ar
  14       14       15 ar
  15       15       10 ar
  16       15       16 1
  17       16       17 2
  18       17        6 1
  19       17       18 1
  20       18       19 am
  21       19       20 2
  22       19       21 1
  23       21       22 ar
  24       22       23 ar
  25       23       24 ar
  26       24       25 1
  27       25       26 1
  28       26       27 am
  29       27       28 2
  30       27       29 1
  31       29       30 2
  32       30       31 1
  33       31       32 2
  34       32       33 1
  35       33       29 1
  36       24       34 ar
  37       34       35 ar
  38       35       21 ar
  39        1       36 1
  40        1       37 1
  41        1       38 1
  42        2       39 1
  43        2       40 1
  44        8       41 1
  45        8       42 1
  46        8       43 1
  47        9       44 1
  48       11       45 1
  49       12       46 1
  50       13       47 1
  51       14       48 1
  52       18       49 1
  53       22       50 1
  54       23       51 1
  55       25       52 1
  56       25       53 1
  57       26       54 1
  58       30       55 1
  59       31       56 1
  60       32       57 1
  61       34       58 1
  62       35       59 1

@<TRIPOS>MOLECULE

  59   62
SMALL
USER_CHARGES
@<TRIPOS>ATOM
   1 C1          -0.2937    -0.9957     4.7199 C.3          1    LIG   0.0000
   2 C2           0.6939    -1.6830     3.7912 C.3          1    LIG   0.0000
   3 O3           1.3933    -0.7047     3.0362 O.3          1    LIG   0.0000
   4 C4           2.2801    -1.1712     2.1924 C.2          1    LIG   0.0000
   5 O5           2.4546    -2.3548     2.0987 O.2          1    LIG   0.0000
   6 C6           3.0523    -0.2556     1.3698 C.2          1    LIG   0.0000
   7 C7           4.2834    -0.6615     1.0279 C.2          1    LIG   0.0000
   8 C8           4.7595    -2.0291     1.4999 C.3          1    LIG   0.0000
   9 N9           5.2228     0.0668     0.2630 N.pl3        1    LIG   0.0000
  10 C10          5.3828     1.4648     0.3400 C.ar         1    LIG   0.0000
  11 C11          6.7010     1.8896     0.2041 C.ar         1    LIG   0.0000
  12 C12          7.0235     3.2409     0.3120 C.ar         1    LIG   0.0000
  13 C13          6.0237     4.1771     0.5571 C.ar         1    LIG   0.0000
  14 C14          4.7041     3.7481     0.6704 C.ar         1    LIG   0.0000
  15 C15          4.3525     2.4000     0.5516 C.ar         1    LIG   0.0000
  16 N16          2.9737     2.0971     0.6460 N.2          1    LIG   0.0000
  17 C17          2.3977     1.0000     1.0000 C.2          1    LIG   0.0000
  18 N18          1.0000     1.0000     1.0000 N.am         1    LIG   0.0000
  19 C19          0.3150    -0.1291     1.3643 C.2          1    LIG   0.0000
  20 O20          0.7944    -1.2115     1.1676 O.2          1    LIG   0.0000
  21 C21         -0.9891    -0.0164     1.9876 C.ar         1    LIG   0.0000
  22 C22         -1.6745    -1.1704     2.3529 C.ar         1    LIG   0.0000
  23 C23         -2.9256    -1.0572     2.9503 C.ar         1    LIG   0.0000
  24 C24         -3.4776     0.1993     3.1750 C.ar         1    LIG   0.0000
  25 C25         -4.8447     0.3138     3.8278 C.3          1    LIG   0.0000
  26 N26         -4.7769     1.2694     4.9428 N.am         1    LIG   0.0000
  27 C27         -5.0790     0.8603     6.2149 C.2          1    LIG   0.0000
  28 O28         -4.6943     1.4963     7.1569 O.2          1    LIG   0.0000
  29 C29         -5.8633    -0.3403     6.4228 C.2          1    LIG   0.0000
  30 C30         -6.8161    -0.8421     5.5949 C.2          1    LIG   0.0000
  31 C31         -7.4066    -2.0391     6.0799 C.2          1    LIG   0.0000
  32 C32         -6.9568    -2.5175     7.2738 C.2          1    LIG   0.0000
  33 S33         -5.7673    -1.3931     7.7596 S.3          1    LIG   0.0000
  34 C34         -2.7846     1.3486     2.8074 C.ar         1    LIG   0.0000
  35 C35         -1.5333     1.2447     2.2096 C.ar         1    LIG   0.0000
  36 H           -0.7863    -1.6847     5.2516 H            1    LIG   0.0000
  37 H            0.2005    -0.3866     5.3402 H            1    LIG   0.0000
  38 H           -0.9451    -0.4636     4.1790 H            1    LIG   0.0000
  39 H            1.3453    -2.2151     4.3321 H            1    LIG   0.0000
  40 H            0.1997    -2.2922     3.1709 H            1    LIG   0.0000
  41 H            4.0349    -2.4697     2.0299 H            1    LIG   0.0000
  42 H            4.9843    -2.5957     0.7072 H            1    LIG   0.0000
  43 H            5.5720    -1.9198     2.0726 H            1    LIG   0.0000
  44 H            5.8083    -0.4398    -0.3699 H            1    LIG   0.0000
  45 H            7.4224     1.2200     0.0277 H            1    LIG   0.0000
  46 H            7.9733     3.5378     0.2132 H            1    LIG   0.0000
  47 H            6.2504     5.1466     0.6508 H            1    LIG   0.0000
  48 H            3.9870     4.4237     0.8417 H            1    LIG   0.0000
  49 H            0.5000     1.8242     0.7341 H            1    LIG   0.0000
  50 H           -1.2724    -2.0710     2.1879 H            1    LIG   0.0000
  51 H           -3.4280    -1.8793     3.2182 H            1    LIG   0.0000
  52 H           -5.5101     0.6347     3.1538 H            1    LIG   0.0000
  53 H           -5.1253    -0.5818     4.1730 H            1    LIG   0.0000
  54 H           -4.5101     2.2181     4.7727 H            1    LIG   0.0000
  55 H           -7.0759    -0.4116     4.7305 H            1    LIG   0.0000
  56 H           -8.1229    -2.5115     5.5663 H            1    LIG   0.0000
  57 H           -7.2557    -3.3407     7.7563 H            1    LIG   0.0000
  58 H           -3.1863     2.2492     2.9732 H            1    LIG   0.0000
  59 H           -1.0305     2.0668     1.9424 H            1    LIG   0.0000
@<TRIPOS>BOND
   1        1        2 1
   2        2        3 1
   3        3        4 1
   4        4        5 2
   5        4        6 1
   6        6        7 2
   7        7        8 1
   8        7        9 1
   9        9       10 1
  10       10       11 ar
  11       11       12 ar
  12       12       13 ar
  13       13       14 ar
  14       14       15 ar
  15       15       10 ar
  16       15       16 1
  17       16       17 2
  18       17        6 1
  19       17       18 1
  20       18       19 am
  21       19       20 2
  22       19       21 1
  23       21       22 ar
  24       22       23 ar
  25       23       24 ar
  26       24       25 1
  27       25       26 1
  28       26       27 am
  29       27       28 2
  30       27       29 1
  31       29       30 2
  32       30       31 1
  33       31       32 2
  34       32       33 1
  35       33       29 1
  36       24       34 ar
  37       34       35 ar
  38       35       21 ar
  39        1       36 1
  40        1       37 1
  41        1       38 1
  42        2       39 1
  43        2       40 1
  44        8       41 1
  45        8       42 1
  46        8       43 1
  47        9       44 1
  48       11       45 1
  49       12       46 1
  50       13       47 1
  51       14       48 1
  52       18       49 1
  53       22       50 1
  54       23       51 1
  55       25       52 1
  56       25       53 1
  57       26       54 1
  58       30       55 1
  59       31       56 1
  60       32       57 1
  61       34       58 1
  62       35       59 1

@<TRIPOS>MOLECULE

  59   62
SMALL
USER_CHARGES
@<TRIPOS>ATOM
   1 C1           0.3078    -1.1007     5.1411 C.3          1    LIG   0.0000
   2 C2           0.6939    -1.6830     3.7912 C.3          1    LIG   0.0000
   3 O3           1.3933    -0.7047     3.0362 O.3          1    LIG   0.0000
   4 C4           2.2801    -1.1712     2.1924 C.2          1    LIG   0.0000
   5 O5           2.4546    -2.3548     2.0987 O.2          1    LIG   0.0000
   6 C6           3.0523    -0.2556     1.3698 C.2          1    LIG   0.0000
   7 C7           4.2834    -0.6615     1.0279 C.2          1    LIG   0.0000
   8 C8           4.7595    -2.0291     1.4999 C.3          1    LIG   0.0000
   9 N9           5.2228     0.0668     0.2630 N.pl3        1    LIG   0.0000
  10 C10          5.3828     1.4648     0.3400 C.ar         1    LIG   0.0000
  11 C11          6.7010     1.8896     0.2041 C.ar         1    LIG   0.0000
  12 C12          7.0235     3.2409     0.3120 C.ar         1    LIG   0.0000
  13 C13          6.0237     4.1771     0.5571 C.ar         1    LIG   0.0000
  14 C14          4.7041     3.7481     0.6704 C.ar         1    LIG   0.0000
  15 C15          4.3525     2.4000     0.5516 C.ar         1    LIG   0.0000
  16 N16          2.9737     2.0971     0.6460 N.2          1    LIG   0.0000
  17 C17          2.3977     1.0000     1.0000 C.2          1    LIG   0.0000
  18 N18          1.0000     1.0000     1.0000 N.am         1    LIG   0.0000
  19 C19          0.3150    -0.1291     1.3643 C.2          1    LIG   0.0000
  20 O20          0.7944    -1.2115     1.1676 O.2          1    LIG   0.0000
  21 C21         -0.9891    -0.0164     1.9876 C.ar         1    LIG   0.0000
  22 C22         -1.6745    -1.1704     2.3529 C.ar         1    LIG   0.0000
  23 C23         -2.9256    -1.0572     2.9503 C.ar         1    LIG   0.0000
  24 C24         -3.4776     0.1993     3.1750 C.ar         1    LIG   0.0000
  25 C25         -4.8447     0.3138     3.8278 C.3          1    LIG   0.0000
  26 N26         -5.3625    -1.0307     4.1196 N.am         1    LIG   0.0000
  27 C27         -5.5561    -1.9262     3.1010 C.2          1    LIG   0.0000
  28 O28         -6.4194    -2.7552     3.1869 O.2          1    LIG   0.0000
  29 C29         -4.7183    -1.8722     1.9199 C.2          1    LIG   0.0000
  30 C30         -4.1347    -0.7672     1.3873 C.2          1    LIG   0.0000
  31 C31         -3.3700    -1.0430     0.2229 C.2          1    LIG   0.0000
  32 C32         -3.3193    -2.3378    -0.1981 C.2          1    LIG   0.0000
  33 S33         -4.2795    -3.1877     0.9292 S.3          1    LIG   0.0000
  34 C34         -2.7846     1.3486     2.8074 C.ar         1    LIG   0.0000
  35 C35         -1.5333     1.2447     2.2096 C.ar         1    LIG   0.0000
  36 H           -0.1847    -1.7897     5.6728 H            1    LIG   0.0000
  37 H            1.1334    -0.8266     5.6343 H            1    LIG   0.0000
  38 H           -0.2792    -0.3028     5.0044 H            1    LIG   0.0000
  39 H            1.2809    -2.4810     3.9279 H            1    LIG   0.0000
  40 H           -0.1317    -1.9572     3.2980 H            1    LIG   0.0000
  41 H            4.0349    -2.4697     2.0299 H            1    LIG   0.0000
  42 H            4.9843    -2.5957     0.7072 H            1    LIG   0.0000
  43 H            5.5720    -1.9198     2.0726 H            1    LIG   0.0000
  44 H            5.8083    -0.4398    -0.3699 H            1    LIG   0.0000
  45 H            7.4224     1.2200     0.0277 H            1    LIG   0.0000
  46 H            7.9733     3.5378     0.2132 H            1    LIG   0.0000
  47 H            6.2504     5.1466     0.6508 H            1    LIG   0.0000
  48 H            3.9870     4.4237     0.8417 H            1    LIG   0.0000
  49 H            0.5000     1.8242     0.7341 H            1    LIG   0.0000
  50 H           -1.2724    -2.0710     2.1879 H            1    LIG   0.0000
  51 H           -3.4280    -1.8793     3.2182 H            1    LIG   0.0000
  52 H           -4.7652     0.8324     4.6791 H            1    LIG   0.0000
  53 H           -5.4718     0.7852     3.2076 H            1    LIG   0.0000
  54 H           -5.5735    -1.2916     5.0616 H            1    LIG   0.0000
  55 H           -4.2336     0.1487     1.7763 H            1    LIG   0.0000
  56 H           -2.8885    -0.3168    -0.2678 H            1    LIG   0.0000
  57 H           -2.8303    -2.7069    -0.9884 H            1    LIG   0.0000
  58 H           -3.1863     2.2492     2.9732 H            1    LIG   0.0000
  59 H           -1.0305     2.0668     1.9424 H            1    LIG   0.0000
@<TRIPOS>BOND
   1        1        2 1
   2        2        3 1
   3        3        4 1
   4        4        5 2
   5        4        6 1
   6        6        7 2
   7        7        8 1
   8        7        9 1
   9        9       10 1
  10       10       11 ar
  11       11       12 ar
  12       12       13 ar
  13       13       14 ar
  14       14       15 ar
  15       15       10 ar
  16       15       16 1
  17       16       17 2
  18       17        6 1
  19       17       18 1
  20       18       19 am
  21       19       20 2
  22       19       21 1
  23       21       22 ar
  24       22       23 ar
  25       23       24 ar
  26       24       25 1
  27       25       26 1
  28       26       27 am
  29       27       28 2
  30       27       29 1
  31       29       30 2
  32       30       31 1
  33       31       32 2
  34       32       33 1
  35       33       29 1
  36       24       34 ar
  37       34       35 ar
  38       35       21 ar
  39        1       36 1
  40        1       37 1
  41        1       38 1
  42        2       39 1
  43        2       40 1
  44        8       41 1
  45        8       42 1
  46        8       43 1
  47        9       44 1
  48       11       45 1
  49       12       46 1
  50       13       47 1
  51       14       48 1
  52       18       49 1
  53       22       50 1
  54       23       51 1
  55       25       52 1
  56       25       53 1
  57       26       54 1
  58       30       55 1
  59       31       56 1
  60       32       57 1
  61       34       58 1
  62       35       59 1

@<TRIPOS>MOLECULE

  59   62
SMALL
USER_CHARGES
@<TRIPOS>ATOM
   1 C1          -0.7528    -1.7412     3.3285 C.3          1    LIG   0.0000
   2 C2           0.6939    -1.6830     3.7912 C.3          1    LIG   0.0000
   3 O3           1.3933    -0.7047     3.0362 O.3          1    LIG   0.0000
   4 C4           2.2801    -1.1712     2.1924 C.2          1    LIG   0.0000
   5 O5           2.4546    -2.3548     2.0987 O.2          1    LIG   0.0000
   6 C6           3.0523    -0.2556     1.3698 C.2          1    LIG   0.0000
   7 C7           4.2834    -0.6615     1.0279 C.2          1    LIG   0.0000
   8 C8           4.7595    -2.0291     1.4999 C.3          1    LIG   0.0000
   9 N9           5.2228     0.0668     0.2630 N.pl3        1    LIG   0.0000
  10 C10          5.3828     1.4648     0.3400 C.ar         1    LIG   0.0000
  11 C11          6.7010     1.8896     0.2041 C.ar         1    LIG   0.0000
  12 C12          7.0235     3.2409     0.3120 C.ar         1    LIG   0.0000
  13 C13          6.0237     4.1771     0.5571 C.ar         1    LIG   0.0000
  14 C14          4.7041     3.7481     0.6704 C.ar         1    LIG   0.0000
  15 C15          4.3525     2.4000     0.5516 C.ar         1    LIG   0.0000
  16 N16          2.9737     2.0971     0.6460 N.2          1    LIG   0.0000
  17 C17          2.3977     1.0000     1.0000 C.2          1    LIG   0.0000
  18 N18          1.0000     1.0000     1.0000 N.am         1    LIG   0.0000
  19 C19          0.3150    -0.1291     1.3643 C.2          1    LIG   0.0000
  20 O20          0.7944    -1.2115     1.1676 O.2          1    LIG   0.0000
  21 C21         -0.9891    -0.0164     1.9876 C.ar         1    LIG   0.0000
  22 C22         -1.9952    -0.9098     1.6347 C.ar         1    LIG   0.0000
  23 C23         -3.2449    -0.7975     2.2352 C.ar         1    LIG   0.0000
  24 C24         -3.4772     0.2003     3.1757 C.ar         1    LIG   0.0000
  25 C25         -4.8452     0.3160     3.8264 C.3          1    LIG   0.0000
  26 N26         -5.2593    -1.0000     4.3339 N.am         1    LIG   0.0000
  27 C27         -6.0735    -1.0854     5.4324 C.2          1    LIG   0.0000
  28 O28         -6.6985    -2.0887     5.6395 O.2          1    LIG   0.0000
  29 C29         -6.1799     0.0358     6.3443 C.2          1    LIG   0.0000
  30 C30         -5.2960     1.0580     6.4819 C.2          1    LIG   0.0000
  31 C31         -5.6851     2.0074     7.4638 C.2          1    LIG   0.0000
  32 C32         -6.8571     1.7808     8.1208 C.2          1    LIG   0.0000
  33 S33         -7.4409     0.3212     7.4546 S.3          1    LIG   0.0000
  34 C34         -2.4647     1.0891     3.5237 C.ar         1    LIG   0.0000
  35 C35         -1.2123     0.9841     2.9283 C.ar         1    LIG   0.0000
  36 H           -1.2454    -2.4302     3.8602 H            1    LIG   0.0000
  37 H           -1.1816    -0.8478     3.4621 H            1    LIG   0.0000
  38 H           -0.7832    -1.9839     2.3589 H            1    LIG   0.0000
  39 H            0.7243    -1.4403     4.7608 H            1    LIG   0.0000
  40 H            1.1228    -2.5765     3.6576 H            1    LIG   0.0000
  41 H            4.0349    -2.4697     2.0299 H            1    LIG   0.0000
  42 H            4.9843    -2.5957     0.7072 H            1    LIG   0.0000
  43 H            5.5720    -1.9198     2.0726 H            1    LIG   0.0000
  44 H            5.8083    -0.4398    -0.3699 H            1    LIG   0.0000
  45 H            7.4224     1.2200     0.0277 H            1    LIG   0.0000
  46 H            7.9733     3.5378     0.2132 H            1    LIG   0.0000
  47 H            6.2504     5.1466     0.6508 H            1    LIG   0.0000
  48 H            3.9870     4.4237     0.8417 H            1    LIG   0.0000
  49 H            0.5000     1.8242     0.7341 H            1    LIG   0.0000
  50 H           -1.8221    -1.6246     0.9572 H            1    LIG   0.0000
  51 H           -3.9762    -1.4341     1.9906 H            1    LIG   0.0000
  52 H           -4.7997     0.9663     4.5847 H            1    LIG   0.0000
  53 H           -5.5094     0.6370     3.1513 H            1    LIG   0.0000
  54 H           -4.9468    -1.8330     3.8772 H            1    LIG   0.0000
  55 H           -4.4555     1.1344     5.9455 H            1    LIG   0.0000
  56 H           -5.1222     2.8091     7.6647 H            1    LIG   0.0000
  57 H           -7.2796     2.3423     8.8322 H            1    LIG   0.0000
  58 H           -2.6376     1.8034     4.2019 H            1    LIG   0.0000
  59 H           -0.4808     1.6203     3.1735 H            1    LIG   0.0000
@<TRIPOS>BOND
   1        1        2 1
   2        2        3 1
   3        3        4 1
   4        4        5 2
   5        4        6 1
   6        6        7 2
   7        7        8 1
   8        7        9 1
   9        9       10 1
  10       10       11 ar
  11       11       12 ar
  12       12       13 ar
  13       13       14 ar
  14       14       15 ar
  15       15       10 ar
  16       15       16 1
  17       16       17 2
  18       17        6 1
  19       17       18 1
  20       18       19 am
  21       19       20 2
  22       19       21 1
  23       21       22 ar
  24       22       23 ar
  25       23       24 ar
  26       24       25 1
  27       25       26 1
  28       26       27 am
  29       27       28 2
  30       27       29 1
  31       29       30 2
  32       30       31 1
  33       31       32 2
  34       32       33 1
  35       33       29 1
  36       24       34 ar
  37       34       35 ar
  38       35       21 ar
  39        1       36 1
  40        1       37 1
  41        1       38 1
  42        2       39 1
  43        2       40 1
  44        8       41 1
  45        8       42 1
  46        8       43 1
  47        9       44 1
  48       11       45 1
  49       12       46 1
  50       13       47 1
  51       14       48 1
  52       18       49 1
  53       22       50 1
  54       23       51 1
  55       25       52 1
  56       25       53 1
  57       26       54 1
  58       30       55 1
  59       31       56 1
  60       32       57 1
  61       34       58 1
  62       35       59 1

