@<TRIPOS>MOLECULE
*****
 59 62 0 0 0
SMALL
USER_CHARGES

@<TRIPOS>ATOM
      1 C1         -0.2937   -0.9957    4.7199 C.3     1  LIG1        0.0000
      2 C2          0.6939   -1.6830    3.7912 C.3     1  LIG1        0.0000
      3 O3          1.3933   -0.7047    3.0362 O.3     1  LIG1        0.0000
      4 C4          2.2801   -1.1712    2.1924 C.2     1  LIG1        0.0000
      5 O5          2.4546   -2.3548    2.0987 O.2     1  LIG1        0.0000
      6 C6          3.0523   -0.2556    1.3698 C.2     1  LIG1        0.0000
      7 C7          4.2834   -0.6615    1.0279 C.2     1  LIG1        0.0000
      8 C8          4.7595   -2.0291    1.4999 C.3     1  LIG1        0.0000
      9 N9          5.2228    0.0668    0.2630 N.pl3   1  LIG1        0.0000
     10 C10         5.3828    1.4648    0.3400 C.3     1  LIG1        0.0000
     11 C11         6.7010    1.8896    0.2041 C.3     1  LIG1        0.0000
     12 C12         7.0235    3.2409    0.3120 C.3     1  LIG1        0.0000
     13 C13         6.0237    4.1771    0.5571 C.3     1  LIG1        0.0000
     14 C14         4.7041    3.7481    0.6704 C.3     1  LIG1        0.0000
     15 C15         4.3525    2.4000    0.5516 C.3     1  LIG1        0.0000
     16 N16         2.9737    2.0971    0.6460 N.2     1  LIG1        0.0000
     17 C17         2.3977    1.0000    1.0000 C.2     1  LIG1        0.0000
     18 N18         1.0000    1.0000    1.0000 N.am    1  LIG1        0.0000
     19 C19         0.3150   -0.1291    1.3643 C.2     1  LIG1        0.0000
     20 O20         0.7944   -1.2115    1.1676 O.2     1  LIG1        0.0000
     21 C21        -0.9891   -0.0164    1.9876 C.3     1  LIG1        0.0000
     22 C22        -1.8496   -1.1092    1.9754 C.3     1  LIG1        0.0000
     23 C23        -3.1000   -0.9962    2.5743 C.3     1  LIG1        0.0000
     24 C24        -3.4774    0.1998    3.1753 C.3     1  LIG1        0.0000
     25 C25        -4.8450    0.3148    3.8270 C.3     1  LIG1        0.0000
     26 N26        -4.7500   -0.0829    5.2390 N.am    1  LIG1        0.0000
     27 C27        -4.9432   -1.3912    5.5967 C.2     1  LIG1        0.0000
     28 O28        -5.2228   -1.6682    6.7302 O.2     1  LIG1        0.0000
     29 C29        -4.8097   -2.4404    4.6061 C.2     1  LIG1        0.0000
     30 C30        -5.0631   -2.3388    3.2755 C.2     1  LIG1        0.0000
     31 C31        -4.8349   -3.5483    2.5672 C.2     1  LIG1        0.0000
     32 C32        -4.4041   -4.6215    3.2877 C.2     1  LIG1        0.0000
     33 S33        -4.3065   -4.0435    4.8913 S.3     1  LIG1        0.0000
     34 C34        -2.6099    1.2878    3.1840 C.3     1  LIG1        0.0000
     35 C35        -1.3580    1.1836    2.5874 C.3     1  LIG1        0.0000
     36 H          -0.7863   -1.6847    5.2516 H       1  LIG1        0.0000
     37 H           0.2005   -0.3866    5.3402 H       1  LIG1        0.0000
     38 H          -0.9451   -0.4636    4.1790 H       1  LIG1        0.0000
     39 H           1.3453   -2.2151    4.3321 H       1  LIG1        0.0000
     40 H           0.1997   -2.2922    3.1709 H       1  LIG1        0.0000
     41 H           4.0349   -2.4697    2.0299 H       1  LIG1        0.0000
     42 H           4.9843   -2.5957    0.7072 H       1  LIG1        0.0000
     43 H           5.5720   -1.9198    2.0726 H       1  LIG1        0.0000
     44 H           5.8083   -0.4398   -0.3699 H       1  LIG1        0.0000
     45 H           7.4224    1.2200    0.0277 H       1  LIG1        0.0000
     46 H           7.9733    3.5378    0.2132 H       1  LIG1        0.0000
     47 H           6.2504    5.1466    0.6508 H       1  LIG1        0.0000
     48 H           3.9870    4.4237    0.8417 H       1  LIG1        0.0000
     49 H           0.5000    1.8242    0.7341 H       1  LIG1        0.0000
     50 H          -1.5726   -1.9662    1.5409 H       1  LIG1        0.0000
     51 H          -3.7274   -1.7748    2.5728 H       1  LIG1        0.0000
     52 H          -5.1641    1.2607    3.7678 H       1  LIG1        0.0000
     53 H          -5.4909   -0.2850    3.3545 H       1  LIG1        0.0000
     54 H          -4.5444    0.6016    5.9384 H       1  LIG1        0.0000
     55 H          -5.3788   -1.4965    2.8384 H       1  LIG1        0.0000
     56 H          -4.9843   -3.6099    1.5804 H       1  LIG1        0.0000
     57 H          -4.1928   -5.5398    2.9530 H       1  LIG1        0.0000
     58 H          -2.8866    2.1446    3.6191 H       1  LIG1        0.0000
     59 H          -0.7303    1.9620    2.5896 H       1  LIG1        0.0000
@<TRIPOS>BOND
     1     1     2    1
     2     2     3    1
     3     3     4    1
     4     4     5    2
     5     4     6    1
     6     6     7    2
     7     7     8    1
     8     7     9    1
     9     9    10    1
    10    10    11   ar
    11    11    12   ar
    12    12    13   ar
    13    13    14   ar
    14    14    15   ar
    15    15    10   ar
    16    15    16    1
    17    16    17    2
    18    17     6    1
    19    17    18    1
    20    18    19   am
    21    19    20    2
    22    19    21    1
    23    21    22   ar
    24    22    23   ar
    25    23    24   ar
    26    24    25    1
    27    25    26    1
    28    26    27   am
    29    27    28    2
    30    27    29    1
    31    29    30    2
    32    30    31    1
    33    31    32    2
    34    32    33    1
    35    33    29    1
    36    24    34   ar
    37    34    35   ar
    38    35    21   ar
    39     1    36    1
    40     1    37    1
    41     1    38    1
    42     2    39    1
    43     2    40    1
    44     8    41    1
    45     8    42    1
    46     8    43    1
    47     9    44    1
    48    11    45    1
    49    12    46    1
    50    13    47    1
    51    14    48    1
    52    18    49    1
    53    22    50    1
    54    23    51    1
    55    25    52    1
    56    25    53    1
    57    26    54    1
    58    30    55    1
    59    31    56    1
    60    32    57    1
    61    34    58    1
    62    35    59    1
