@<TRIPOS>MOLECULE
*****
 59 62 0 0 0
SMALL
USER_CHARGES

@<TRIPOS>ATOM
      1 C1          0.3078   -1.1007    5.1411 C.3     1  LIG1        0.0000
      2 C2          0.6939   -1.6830    3.7912 C.3     1  LIG1        0.0000
      3 O3          1.3933   -0.7047    3.0362 O.3     1  LIG1        0.0000
      4 C4          2.2801   -1.1712    2.1924 C.2     1  LIG1        0.0000
      5 O5          2.4546   -2.3548    2.0987 O.2     1  LIG1        0.0000
      6 C6          3.0523   -0.2556    1.3698 C.2     1  LIG1        0.0000
      7 C7          4.2834   -0.6615    1.0279 C.2     1  LIG1        0.0000
      8 C8          4.7595   -2.0291    1.4999 C.3     1  LIG1        0.0000
      9 N9          5.2228    0.0668    0.2630 N.pl3   1  LIG1        0.0000
     10 C10         5.3828    1.4648    0.3400 C.3     1  LIG1        0.0000
     11 C11         6.7010    1.8896    0.2041 C.3     1  LIG1        0.0000
     12 C12         7.0235    3.2409    0.3120 C.3     1  LIG1        0.0000
     13 C13         6.0237    4.1771    0.5571 C.3     1  LIG1        0.0000
     14 C14         4.7041    3.7481    0.6704 C.3     1  LIG1        0.0000
     15 C15         4.3525    2.4000    0.5516 C.3     1  LIG1        0.0000
     16 N16         2.9737    2.0971    0.6460 N.2     1  LIG1        0.0000
     17 C17         2.3977    1.0000    1.0000 C.2     1  LIG1        0.0000
     18 N18         1.0000    1.0000    1.0000 N.am    1  LIG1        0.0000
     19 C19         0.3150   -0.1291    1.3643 C.2     1  LIG1        0.0000
     20 O20         0.7944   -1.2115    1.1676 O.2     1  LIG1        0.0000
     21 C21        -0.9891   -0.0164    1.9876 C.3     1  LIG1        0.0000
     22 C22        -1.6745   -1.1704    2.3529 C.3     1  LIG1        0.0000
     23 C23        -2.9256   -1.0572    2.9503 C.3     1  LIG1        0.0000
     24 C24        -3.4776    0.1993    3.1750 C.3     1  LIG1        0.0000
     25 C25        -4.8447    0.3138    3.8278 C.3     1  LIG1        0.0000
     26 N26        -5.3625   -1.0307    4.1196 N.am    1  LIG1        0.0000
     27 C27        -5.5561   -1.9262    3.1010 C.2     1  LIG1        0.0000
     28 O28        -6.4194   -2.7552    3.1869 O.2     1  LIG1        0.0000
     29 C29        -4.7183   -1.8722    1.9199 C.2     1  LIG1        0.0000
     30 C30        -4.1347   -0.7672    1.3873 C.2     1  LIG1        0.0000
     31 C31        -3.3700   -1.0430    0.2229 C.2     1  LIG1        0.0000
     32 C32        -3.3193   -2.3378   -0.1981 C.2     1  LIG1        0.0000
     33 S33        -4.2795   -3.1877    0.9292 S.3     1  LIG1        0.0000
     34 C34        -2.7846    1.3486    2.8074 C.3     1  LIG1        0.0000
     35 C35        -1.5333    1.2447    2.2096 C.3     1  LIG1        0.0000
     36 H          -0.1847   -1.7897    5.6728 H       1  LIG1        0.0000
     37 H           1.1334   -0.8266    5.6343 H       1  LIG1        0.0000
     38 H          -0.2792   -0.3028    5.0044 H       1  LIG1        0.0000
     39 H           1.2809   -2.4810    3.9279 H       1  LIG1        0.0000
     40 H          -0.1317   -1.9572    3.2980 H       1  LIG1        0.0000
     41 H           4.0349   -2.4697    2.0299 H       1  LIG1        0.0000
     42 H           4.9843   -2.5957    0.7072 H       1  LIG1        0.0000
     43 H           5.5720   -1.9198    2.0726 H       1  LIG1        0.0000
     44 H           5.8083   -0.4398   -0.3699 H       1  LIG1        0.0000
     45 H           7.4224    1.2200    0.0277 H       1  LIG1        0.0000
     46 H           7.9733    3.5378    0.2132 H       1  LIG1        0.0000
     47 H           6.2504    5.1466    0.6508 H       1  LIG1        0.0000
     48 H           3.9870    4.4237    0.8417 H       1  LIG1        0.0000
     49 H           0.5000    1.8242    0.7341 H       1  LIG1        0.0000
     50 H          -1.2724   -2.0710    2.1879 H       1  LIG1        0.0000
     51 H          -3.4280   -1.8793    3.2182 H       1  LIG1        0.0000
     52 H          -4.7652    0.8324    4.6791 H       1  LIG1        0.0000
     53 H          -5.4718    0.7852    3.2076 H       1  LIG1        0.0000
     54 H          -5.5735   -1.2916    5.0616 H       1  LIG1        0.0000
     55 H          -4.2336    0.1487    1.7763 H       1  LIG1        0.0000
     56 H          -2.8885   -0.3168   -0.2678 H       1  LIG1        0.0000
     57 H          -2.8303   -2.7069   -0.9884 H       1  LIG1        0.0000
     58 H          -3.1863    2.2492    2.9732 H       1  LIG1        0.0000
     59 H          -1.0305    2.0668    1.9424 H       1  LIG1        0.0000
@<TRIPOS>BOND
     1     1     2    1
     2     2     3    1
     3     3     4    1
     4     4     5    2
     5     4     6    1
     6     6     7    2
     7     7     8    1
     8     7     9    1
     9     9    10    1
    10    10    11   ar
    11    11    12   ar
    12    12    13   ar
    13    13    14   ar
    14    14    15   ar
    15    15    10   ar
    16    15    16    1
    17    16    17    2
    18    17     6    1
    19    17    18    1
    20    18    19   am
    21    19    20    2
    22    19    21    1
    23    21    22   ar
    24    22    23   ar
    25    23    24   ar
    26    24    25    1
    27    25    26    1
    28    26    27   am
    29    27    28    2
    30    27    29    1
    31    29    30    2
    32    30    31    1
    33    31    32    2
    34    32    33    1
    35    33    29    1
    36    24    34   ar
    37    34    35   ar
    38    35    21   ar
    39     1    36    1
    40     1    37    1
    41     1    38    1
    42     2    39    1
    43     2    40    1
    44     8    41    1
    45     8    42    1
    46     8    43    1
    47     9    44    1
    48    11    45    1
    49    12    46    1
    50    13    47    1
    51    14    48    1
    52    18    49    1
    53    22    50    1
    54    23    51    1
    55    25    52    1
    56    25    53    1
    57    26    54    1
    58    30    55    1
    59    31    56    1
    60    32    57    1
    61    34    58    1
    62    35    59    1
