@<TRIPOS>MOLECULE
*****
 58 62 0 0 0
SMALL
USER_CHARGES

@<TRIPOS>ATOM
      1 C1         -4.6420    4.6595    0.1289 C.3     1  LIG1        0.0000
      2 C2         -3.4093    3.7699    0.0974 C.2     1  LIG1        0.0000
      3 C3         -3.5889    2.4122    0.0836 C.2     1  LIG1        0.0000
      4 C4         -2.4384    1.5813    0.0541 C.2     1  LIG1        0.0000
      5 O5         -2.5626    0.3666    0.0412 O.2     1  LIG1        0.0000
      6 C6         -1.1596    2.2026    0.0405 C.2     1  LIG1        0.0000
      7 C7          0.0343    1.3790    0.0107 C.2     1  LIG1        0.0000
      8 N8          0.0673    0.0685   -0.0061 N.2     1  LIG1        0.0000
      9 C9          1.3874   -0.2562   -0.0357 C.2     1  LIG1        0.0000
     10 C10         1.9217   -1.6036   -0.0585 C.3     1  LIG1        0.0000
     11 C11         3.2997   -1.7926   -0.0785 C.3     1  LIG1        0.0000
     12 C12         3.8077   -3.0874   -0.1008 C.3     1  LIG1        0.0000
     13 C13         2.9405   -4.1745   -0.1038 C.3     1  LIG1        0.0000
     14 C14         3.5038   -5.5853   -0.1285 C.3     1  LIG1        0.0000
     15 N15         3.7033   -6.0596    1.2547 N.3     1  LIG1        0.0000
     16 C16         4.8091   -5.3460    1.9112 C.3     1  LIG1        0.0000
     17 C17         5.0103   -5.8592    3.3286 C.3     1  LIG1        0.0000
     18 O18         3.8050   -5.7042    4.0650 O.3     1  LIG1        0.0000
     19 C19         2.7126   -6.3961    3.4767 C.3     1  LIG1        0.0000
     20 C20         2.4814   -5.9000    2.0578 C.3     1  LIG1        0.0000
     21 C21         1.5633   -3.9764   -0.0826 C.3     1  LIG1        0.0000
     22 C22         1.0468   -2.6854   -0.0603 C.3     1  LIG1        0.0000
     23 N23         2.0863    0.8532   -0.0315 N.2     1  LIG1        0.0000
     24 O24         1.2693    1.8168   -0.0044 O.2     1  LIG1        0.0000
     25 N25        -1.0697    3.5209    0.0551 N.2     1  LIG1        0.0000
     26 N26        -2.1414    4.2944    0.0826 N.pl3   1  LIG1        0.0000
     27 C27        -1.9578    5.6823    0.0967 C.3     1  LIG1        0.0000
     28 C28        -1.0808    6.2487    1.0162 C.3     1  LIG1        0.0000
     29 C29        -0.9067    7.6285    1.0211 C.3     1  LIG1        0.0000
     30 C30        -1.5948    8.4368    0.1224 C.3     1  LIG1        0.0000
     31 C31        -2.4666    7.8492   -0.7884 C.3     1  LIG1        0.0000
     32 C32        -3.2237    8.7240   -1.7742 C.3     1  LIG1        0.0000
     33 F33        -2.6646    9.9301   -1.8169 F       1  LIG1        0.0000
     34 F34        -3.1784    8.1713   -2.9830 F       1  LIG1        0.0000
     35 F35        -4.4906    8.8362   -1.3852 F       1  LIG1        0.0000
     36 C36        -2.6564    6.4715   -0.8107 C.3     1  LIG1        0.0000
     37 H          -5.4640    4.0900    0.1356 H       1  LIG1        0.0000
     38 H          -4.6227    5.2268    0.9522 H       1  LIG1        0.0000
     39 H          -4.6500    5.2468   -0.6804 H       1  LIG1        0.0000
     40 H          -4.5072    2.0163    0.0941 H       1  LIG1        0.0000
     41 H           3.9181   -1.0067   -0.0770 H       1  LIG1        0.0000
     42 H           4.7965   -3.2364   -0.1145 H       1  LIG1        0.0000
     43 H           2.8634   -6.1917   -0.5997 H       1  LIG1        0.0000
     44 H           4.3799   -5.5860   -0.6107 H       1  LIG1        0.0000
     45 H           4.5975   -4.3692    1.9422 H       1  LIG1        0.0000
     46 H           5.6491   -5.4886    1.3876 H       1  LIG1        0.0000
     47 H           5.2612   -6.8268    3.3001 H       1  LIG1        0.0000
     48 H           5.7404   -5.3384    3.7710 H       1  LIG1        0.0000
     49 H           1.8889   -6.2370    4.0208 H       1  LIG1        0.0000
     50 H           2.9143   -7.3754    3.4557 H       1  LIG1        0.0000
     51 H           1.7414   -6.4275    1.6405 H       1  LIG1        0.0000
     52 H           2.2279   -4.9330    2.0838 H       1  LIG1        0.0000
     53 H           0.9450   -4.7624   -0.0833 H       1  LIG1        0.0000
     54 H           0.0581   -2.5364   -0.0458 H       1  LIG1        0.0000
     55 H          -0.5829    5.6722    1.6641 H       1  LIG1        0.0000
     56 H          -0.2790    8.0447    1.6789 H       1  LIG1        0.0000
     57 H          -1.4644    9.4282    0.1310 H       1  LIG1        0.0000
     58 H          -3.2846    6.0555   -1.4682 H       1  LIG1        0.0000
@<TRIPOS>BOND
     1     1     2    1
     2     2     3    2
     3     3     4    1
     4     4     5    2
     5     4     6    1
     6     6     7    1
     7     7     8    2
     8     8     9    1
     9     9    10    1
    10    10    11   ar
    11    11    12   ar
    12    12    13   ar
    13    13    14    1
    14    14    15    1
    15    15    16    1
    16    16    17    1
    17    17    18    1
    18    18    19    1
    19    19    20    1
    20    20    15    1
    21    13    21   ar
    22    21    22   ar
    23    22    10   ar
    24     9    23    2
    25    23    24    1
    26    24     7    1
    27     6    25    2
    28    25    26    1
    29    26     2    1
    30    26    27    1
    31    27    28   ar
    32    28    29   ar
    33    29    30   ar
    34    30    31   ar
    35    31    32    1
    36    32    33    1
    37    32    34    1
    38    32    35    1
    39    31    36   ar
    40    36    27   ar
    41     1    37    1
    42     1    38    1
    43     1    39    1
    44     3    40    1
    45    11    41    1
    46    12    42    1
    47    14    43    1
    48    14    44    1
    49    16    45    1
    50    16    46    1
    51    17    47    1
    52    17    48    1
    53    19    49    1
    54    19    50    1
    55    20    51    1
    56    20    52    1
    57    21    53    1
    58    22    54    1
    59    28    55    1
    60    29    56    1
    61    30    57    1
    62    36    58    1
