@<TRIPOS>MOLECULE
*****
 58 62 0 0 0
SMALL
USER_CHARGES

@<TRIPOS>ATOM
      1 C1         -4.6930    4.5855    0.1275 C.3     1  LIG1        0.0000
      2 C2         -3.4236    3.7491    0.0965 C.2     1  LIG1        0.0000
      3 C3         -2.2182    4.3991    0.0846 C.2     1  LIG1        0.0000
      4 C4         -1.0329    3.6186    0.0558 C.2     1  LIG1        0.0000
      5 O5          0.0586    4.1661    0.0446 O.2     1  LIG1        0.0000
      6 C6         -1.1596    2.2026    0.0405 C.2     1  LIG1        0.0000
      7 C7          0.0343    1.3790    0.0107 C.2     1  LIG1        0.0000
      8 N8          0.0673    0.0685   -0.0061 N.2     1  LIG1        0.0000
      9 C9          1.3874   -0.2562   -0.0357 C.2     1  LIG1        0.0000
     10 C10         1.9217   -1.6036   -0.0585 C.3     1  LIG1        0.0000
     11 C11         3.2997   -1.7926   -0.0785 C.3     1  LIG1        0.0000
     12 C12         3.8077   -3.0874   -0.1008 C.3     1  LIG1        0.0000
     13 C13         2.9405   -4.1745   -0.1038 C.3     1  LIG1        0.0000
     14 C14         3.5038   -5.5853   -0.1285 C.3     1  LIG1        0.0000
     15 N15         3.6692   -6.0246   -1.5277 N.3     1  LIG1        0.0000
     16 C16         2.3681   -6.2493   -2.1756 C.3     1  LIG1        0.0000
     17 C17         2.5586   -6.7169   -3.6101 C.3     1  LIG1        0.0000
     18 O18         3.3169   -5.7524   -4.3270 O.3     1  LIG1        0.0000
     19 C19         4.5924   -5.5192   -3.7467 C.3     1  LIG1        0.0000
     20 C20         4.4355   -5.0434   -2.3108 C.3     1  LIG1        0.0000
     21 C21         1.5633   -3.9764   -0.0826 C.3     1  LIG1        0.0000
     22 C22         1.0468   -2.6854   -0.0603 C.3     1  LIG1        0.0000
     23 N23         2.0863    0.8532   -0.0315 N.2     1  LIG1        0.0000
     24 O24         1.2693    1.8168   -0.0044 O.2     1  LIG1        0.0000
     25 N25        -2.3601    1.6504    0.0537 N.2     1  LIG1        0.0000
     26 N26        -3.4638    2.3775    0.0806 N.pl3   1  LIG1        0.0000
     27 C27        -4.6960    1.7131    0.0928 C.3     1  LIG1        0.0000
     28 C28        -4.9455    0.7138   -0.8424 C.3     1  LIG1        0.0000
     29 C29        -6.1733    0.0609   -0.8210 C.3     1  LIG1        0.0000
     30 C30        -7.1421    0.3956    0.1190 C.3     1  LIG1        0.0000
     31 C31        -6.8713    1.3978    1.0449 C.3     1  LIG1        0.0000
     32 C32        -7.9238    1.7714    2.0759 C.3     1  LIG1        0.0000
     33 F33        -9.1049    1.8984    1.4777 F       1  LIG1        0.0000
     34 F34        -7.9957    0.8187    3.0012 F       1  LIG1        0.0000
     35 F35        -7.5918    2.9238    2.6509 F       1  LIG1        0.0000
     36 C36        -5.6505    2.0642    1.0414 C.3     1  LIG1        0.0000
     37 H          -4.4526    5.5561    0.1353 H       1  LIG1        0.0000
     38 H          -5.2441    4.3851   -0.6825 H       1  LIG1        0.0000
     39 H          -5.2173    4.3654    0.9502 H       1  LIG1        0.0000
     40 H          -2.1742    5.3981    0.0960 H       1  LIG1        0.0000
     41 H           3.9181   -1.0067   -0.0770 H       1  LIG1        0.0000
     42 H           4.7965   -3.2364   -0.1145 H       1  LIG1        0.0000
     43 H           4.3914   -5.5979    0.3319 H       1  LIG1        0.0000
     44 H           2.8750   -6.2036    0.3429 H       1  LIG1        0.0000
     45 H           1.8485   -5.3949   -2.1746 H       1  LIG1        0.0000
     46 H           1.8636   -6.9468   -1.6667 H       1  LIG1        0.0000
     47 H           3.0433   -7.5916   -3.6139 H       1  LIG1        0.0000
     48 H           1.6653   -6.8290   -4.0454 H       1  LIG1        0.0000
     49 H           5.0735   -4.8203   -4.2758 H       1  LIG1        0.0000
     50 H           5.1208   -6.3682   -3.7576 H       1  LIG1        0.0000
     51 H           5.3403   -4.9285   -1.9008 H       1  LIG1        0.0000
     52 H           3.9531   -4.1674   -2.3046 H       1  LIG1        0.0000
     53 H           0.9450   -4.7624   -0.0833 H       1  LIG1        0.0000
     54 H           0.0581   -2.5364   -0.0458 H       1  LIG1        0.0000
     55 H          -4.2522    0.4686   -1.5201 H       1  LIG1        0.0000
     56 H          -6.3618   -0.6582   -1.4898 H       1  LIG1        0.0000
     57 H          -8.0226   -0.0784    0.1292 H       1  LIG1        0.0000
     58 H          -5.4622    2.7837    1.7099 H       1  LIG1        0.0000
@<TRIPOS>BOND
     1     1     2    1
     2     2     3    2
     3     3     4    1
     4     4     5    2
     5     4     6    1
     6     6     7    1
     7     7     8    2
     8     8     9    1
     9     9    10    1
    10    10    11   ar
    11    11    12   ar
    12    12    13   ar
    13    13    14    1
    14    14    15    1
    15    15    16    1
    16    16    17    1
    17    17    18    1
    18    18    19    1
    19    19    20    1
    20    20    15    1
    21    13    21   ar
    22    21    22   ar
    23    22    10   ar
    24     9    23    2
    25    23    24    1
    26    24     7    1
    27     6    25    2
    28    25    26    1
    29    26     2    1
    30    26    27    1
    31    27    28   ar
    32    28    29   ar
    33    29    30   ar
    34    30    31   ar
    35    31    32    1
    36    32    33    1
    37    32    34    1
    38    32    35    1
    39    31    36   ar
    40    36    27   ar
    41     1    37    1
    42     1    38    1
    43     1    39    1
    44     3    40    1
    45    11    41    1
    46    12    42    1
    47    14    43    1
    48    14    44    1
    49    16    45    1
    50    16    46    1
    51    17    47    1
    52    17    48    1
    53    19    49    1
    54    19    50    1
    55    20    51    1
    56    20    52    1
    57    21    53    1
    58    22    54    1
    59    28    55    1
    60    29    56    1
    61    30    57    1
    62    36    58    1
