@<TRIPOS>MOLECULE

  56   60
SMALL
USER_CHARGES
@<TRIPOS>ATOM
   1 C1          -3.2863     4.4059     0.9121 C.3          1    LIG   0.0000
   2 C2          -2.2642     4.4302    -0.2135 C.2          1    LIG   0.0000
   3 N3          -2.0393     5.4316    -1.0222 N.2          1    LIG   0.0000
   4 N4          -1.0939     5.1325    -1.8817 N.pl3        1    LIG   0.0000
   5 C5          -0.5879     5.9801    -2.8748 C.ar         1    LIG   0.0000
   6 C6          -1.4562     6.8006    -3.5875 C.ar         1    LIG   0.0000
   7 C7          -0.9449     7.6388    -4.5727 C.ar         1    LIG   0.0000
   8 C8           0.4214     7.6510    -4.8363 C.ar         1    LIG   0.0000
   9 C9           1.2825     6.8273    -4.1185 C.ar         1    LIG   0.0000
  10 C10          0.7792     5.9854    -3.1318 C.ar         1    LIG   0.0000
  11 C11         -0.6719     3.8559    -1.6553 C.2          1    LIG   0.0000
  12 O12          0.2794     3.1996    -2.3471 O.3          1    LIG  -1.0000
  13 C13         -1.3879     3.3940    -0.5910 C.2          1    LIG   0.0000
  14 C14         -1.2821     2.0859     0.0254 C.2          1    LIG   0.0000
  15 O15         -2.2415     1.5896     0.5482 O.2          1    LIG   0.0000
  16 C16         -0.0173     1.3776     0.0102 C.ar         1    LIG   0.0000
  17 C17          1.1713     2.1003     0.0072 C.ar         1    LIG   0.0000
  18 C18          2.3824     1.4162    -0.0077 C.ar         1    LIG   0.0000
  19 C19          2.3953     0.0257    -0.0205 C.ar         1    LIG   0.0000
  20 C20          3.6615    -0.6793    -0.0364 C.2          1    LIG   0.0000
  21 O21          3.7440    -1.7527    -0.5664 O.2          1    LIG   0.0000
  22 C22          4.8286    -0.0876     0.5883 C.2          1    LIG   0.0000
  23 C23          6.1717    -0.2875     0.2141 C.2          1    LIG   0.0000
  24 C24          6.6910    -1.1625    -0.9159 C.3          1    LIG   0.0000
  25 N25          6.9035     0.4235     1.0304 N.2          1    LIG   0.0000
  26 N26          6.1500     1.0654     1.8918 N.pl3        1    LIG   0.0000
  27 C27          6.6028     1.9337     2.8927 C.ar         1    LIG   0.0000
  28 C28          7.7542     1.6198     3.6072 C.ar         1    LIG   0.0000
  29 C29          8.1963     2.4878     4.6001 C.ar         1    LIG   0.0000
  30 C30          7.4890     3.6555     4.8696 C.ar         1    LIG   0.0000
  31 C31          6.3386     3.9616     4.1499 C.ar         1    LIG   0.0000
  32 C32          5.8892     3.0986     3.1555 C.ar         1    LIG   0.0000
  33 C33          4.8425     0.7566     1.6587 C.2          1    LIG   0.0000
  34 O34          3.7824     1.2175     2.3501 O.3          1    LIG  -1.0000
  35 C35          1.2016    -0.6895    -0.0163 C.ar         1    LIG   0.0000
  36 C36         -0.0137    -0.0137    -0.0015 C.ar         1    LIG   0.0000
  37 H           -3.2522     3.5197     1.3742 H            1    LIG   0.0000
  38 H           -3.0778     5.1318     1.5675 H            1    LIG   0.0000
  39 H           -4.2011     4.5501     0.5348 H            1    LIG   0.0000
  40 H           -2.4371     6.7879    -3.3937 H            1    LIG   0.0000
  41 H           -1.5594     8.2329    -5.0917 H            1    LIG   0.0000
  42 H            0.7861     8.2547    -5.5452 H            1    LIG   0.0000
  43 H            2.2635     6.8403    -4.3117 H            1    LIG   0.0000
  44 H            1.3934     5.3906    -2.6132 H            1    LIG   0.0000
  45 H            1.1552     3.1001     0.0158 H            1    LIG   0.0000
  46 H            3.2436     1.9244    -0.0092 H            1    LIG   0.0000
  47 H            5.9203    -1.5950    -1.3838 H            1    LIG   0.0000
  48 H            7.2020    -0.5996    -1.5656 H            1    LIG   0.0000
  49 H            7.2923    -1.8684    -0.5415 H            1    LIG   0.0000
  50 H            8.2587     0.7794     3.4091 H            1    LIG   0.0000
  51 H            9.0226     2.2725     5.1205 H            1    LIG   0.0000
  52 H            7.8093     4.2776     5.5840 H            1    LIG   0.0000
  53 H            5.8344     4.8024     4.3473 H            1    LIG   0.0000
  54 H            5.0625     3.3132     2.6355 H            1    LIG   0.0000
  55 H            1.2177    -1.6893    -0.0240 H            1    LIG   0.0000
  56 H           -0.8750    -0.5218     0.0008 H            1    LIG   0.0000
@<TRIPOS>BOND
   1        1        2 1
   2        2        3 2
   3        3        4 1
   4        4        5 1
   5        5        6 ar
   6        6        7 ar
   7        7        8 ar
   8        8        9 ar
   9        9       10 ar
  10       10        5 ar
  11        4       11 1
  12       11       12 1
  13       11       13 2
  14       13        2 1
  15       13       14 1
  16       14       15 2
  17       14       16 1
  18       16       17 ar
  19       17       18 ar
  20       18       19 ar
  21       19       20 1
  22       20       21 2
  23       20       22 1
  24       22       23 1
  25       23       24 1
  26       23       25 2
  27       25       26 1
  28       26       27 1
  29       27       28 ar
  30       28       29 ar
  31       29       30 ar
  32       30       31 ar
  33       31       32 ar
  34       32       27 ar
  35       26       33 1
  36       33       22 2
  37       33       34 1
  38       19       35 ar
  39       35       36 ar
  40       36       16 ar
  41        1       37 1
  42        1       38 1
  43        1       39 1
  44        6       40 1
  45        7       41 1
  46        8       42 1
  47        9       43 1
  48       10       44 1
  49       17       45 1
  50       18       46 1
  51       24       47 1
  52       24       48 1
  53       24       49 1
  54       28       50 1
  55       29       51 1
  56       30       52 1
  57       31       53 1
  58       32       54 1
  59       35       55 1
  60       36       56 1

@<TRIPOS>MOLECULE

  56   60
SMALL
USER_CHARGES
@<TRIPOS>ATOM
   1 C1          -3.2863     4.4059     0.9121 C.3          1    LIG   0.0000
   2 C2          -2.2642     4.4302    -0.2135 C.2          1    LIG   0.0000
   3 N3          -2.0393     5.4316    -1.0222 N.2          1    LIG   0.0000
   4 N4          -1.0939     5.1325    -1.8817 N.pl3        1    LIG   0.0000
   5 C5          -0.5879     5.9801    -2.8748 C.ar         1    LIG   0.0000
   6 C6          -1.4562     6.8006    -3.5875 C.ar         1    LIG   0.0000
   7 C7          -0.9449     7.6388    -4.5727 C.ar         1    LIG   0.0000
   8 C8           0.4214     7.6510    -4.8363 C.ar         1    LIG   0.0000
   9 C9           1.2825     6.8273    -4.1185 C.ar         1    LIG   0.0000
  10 C10          0.7792     5.9854    -3.1318 C.ar         1    LIG   0.0000
  11 C11         -0.6719     3.8559    -1.6553 C.2          1    LIG   0.0000
  12 O12          0.2794     3.1996    -2.3471 O.3          1    LIG  -1.0000
  13 C13         -1.3879     3.3940    -0.5910 C.2          1    LIG   0.0000
  14 C14         -1.2821     2.0859     0.0254 C.2          1    LIG   0.0000
  15 O15         -2.2415     1.5896     0.5482 O.2          1    LIG   0.0000
  16 C16         -0.0173     1.3776     0.0102 C.ar         1    LIG   0.0000
  17 C17          1.1713     2.1003     0.0072 C.ar         1    LIG   0.0000
  18 C18          2.3824     1.4162    -0.0077 C.ar         1    LIG   0.0000
  19 C19          2.3953     0.0257    -0.0205 C.ar         1    LIG   0.0000
  20 C20          3.6615    -0.6793    -0.0364 C.2          1    LIG   0.0000
  21 O21          4.6197    -0.1801    -0.5585 O.2          1    LIG   0.0000
  22 C22          3.7705    -1.9878     0.5787 C.2          1    LIG   0.0000
  23 C23          4.6277    -3.0324     0.1810 C.2          1    LIG   0.0000
  24 C24          5.6176    -3.0205    -0.9731 C.3          1    LIG   0.0000
  25 N25          4.4112    -4.0321     0.9940 N.2          1    LIG   0.0000
  26 N26          3.4954    -3.7210     1.8808 N.pl3        1    LIG   0.0000
  27 C27          3.0367    -4.5480     2.9134 C.ar         1    LIG   0.0000
  28 C28          2.8387    -5.9037     2.6730 C.ar         1    LIG   0.0000
  29 C29          2.3821    -6.7177     3.7043 C.ar         1    LIG   0.0000
  30 C30          2.1289    -6.1743     4.9602 C.ar         1    LIG   0.0000
  31 C31          2.3300    -4.8175     5.1917 C.ar         1    LIG   0.0000
  32 C32          2.7858    -3.9961     4.1655 C.ar         1    LIG   0.0000
  33 C33          3.0555    -2.4525     1.6425 C.2          1    LIG   0.0000
  34 O34          2.1099    -1.7956     2.3416 O.3          1    LIG  -1.0000
  35 C35          1.2016    -0.6895    -0.0163 C.ar         1    LIG   0.0000
  36 C36         -0.0137    -0.0137    -0.0015 C.ar         1    LIG   0.0000
  37 H           -3.2522     3.5197     1.3742 H            1    LIG   0.0000
  38 H           -3.0778     5.1318     1.5675 H            1    LIG   0.0000
  39 H           -4.2011     4.5501     0.5348 H            1    LIG   0.0000
  40 H           -2.4371     6.7879    -3.3937 H            1    LIG   0.0000
  41 H           -1.5594     8.2329    -5.0917 H            1    LIG   0.0000
  42 H            0.7861     8.2547    -5.5452 H            1    LIG   0.0000
  43 H            2.2635     6.8403    -4.3117 H            1    LIG   0.0000
  44 H            1.3934     5.3906    -2.6132 H            1    LIG   0.0000
  45 H            1.1552     3.1001     0.0158 H            1    LIG   0.0000
  46 H            3.2436     1.9244    -0.0092 H            1    LIG   0.0000
  47 H            5.5834    -2.1329    -1.4325 H            1    LIG   0.0000
  48 H            6.5406    -3.1788    -0.6222 H            1    LIG   0.0000
  49 H            5.3800    -3.7419    -1.6236 H            1    LIG   0.0000
  50 H            3.0225    -6.2889     1.7687 H            1    LIG   0.0000
  51 H            2.2358    -7.6937     3.5433 H            1    LIG   0.0000
  52 H            1.8008    -6.7620     5.6997 H            1    LIG   0.0000
  53 H            2.1469    -4.4323     6.0962 H            1    LIG   0.0000
  54 H            2.9315    -3.0199     4.3260 H            1    LIG   0.0000
  55 H            1.2177    -1.6893    -0.0240 H            1    LIG   0.0000
  56 H           -0.8750    -0.5218     0.0008 H            1    LIG   0.0000
@<TRIPOS>BOND
   1        1        2 1
   2        2        3 2
   3        3        4 1
   4        4        5 1
   5        5        6 ar
   6        6        7 ar
   7        7        8 ar
   8        8        9 ar
   9        9       10 ar
  10       10        5 ar
  11        4       11 1
  12       11       12 1
  13       11       13 2
  14       13        2 1
  15       13       14 1
  16       14       15 2
  17       14       16 1
  18       16       17 ar
  19       17       18 ar
  20       18       19 ar
  21       19       20 1
  22       20       21 2
  23       20       22 1
  24       22       23 1
  25       23       24 1
  26       23       25 2
  27       25       26 1
  28       26       27 1
  29       27       28 ar
  30       28       29 ar
  31       29       30 ar
  32       30       31 ar
  33       31       32 ar
  34       32       27 ar
  35       26       33 1
  36       33       22 2
  37       33       34 1
  38       19       35 ar
  39       35       36 ar
  40       36       16 ar
  41        1       37 1
  42        1       38 1
  43        1       39 1
  44        6       40 1
  45        7       41 1
  46        8       42 1
  47        9       43 1
  48       10       44 1
  49       17       45 1
  50       18       46 1
  51       24       47 1
  52       24       48 1
  53       24       49 1
  54       28       50 1
  55       29       51 1
  56       30       52 1
  57       31       53 1
  58       32       54 1
  59       35       55 1
  60       36       56 1

@<TRIPOS>MOLECULE

  56   60
SMALL
USER_CHARGES
@<TRIPOS>ATOM
   1 C1          -3.2863     4.4059     0.9121 C.3          1    LIG   0.0000
   2 C2          -2.2642     4.4302    -0.2135 C.2          1    LIG   0.0000
   3 N3          -2.0393     5.4316    -1.0222 N.2          1    LIG   0.0000
   4 N4          -1.0939     5.1325    -1.8817 N.pl3        1    LIG   0.0000
   5 C5          -0.5879     5.9801    -2.8748 C.ar         1    LIG   0.0000
   6 C6          -1.4562     6.8006    -3.5875 C.ar         1    LIG   0.0000
   7 C7          -0.9449     7.6388    -4.5727 C.ar         1    LIG   0.0000
   8 C8           0.4214     7.6510    -4.8363 C.ar         1    LIG   0.0000
   9 C9           1.2825     6.8273    -4.1185 C.ar         1    LIG   0.0000
  10 C10          0.7792     5.9854    -3.1318 C.ar         1    LIG   0.0000
  11 C11         -0.6719     3.8559    -1.6553 C.2          1    LIG   0.0000
  12 O12          0.2794     3.1996    -2.3471 O.3          1    LIG  -1.0000
  13 C13         -1.3879     3.3940    -0.5910 C.2          1    LIG   0.0000
  14 C14         -1.2821     2.0859     0.0254 C.2          1    LIG   0.0000
  15 O15         -2.2415     1.5896     0.5482 O.2          1    LIG   0.0000
  16 C16         -0.0173     1.3776     0.0102 C.ar         1    LIG   0.0000
  17 C17          1.1713     2.1003     0.0072 C.ar         1    LIG   0.0000
  18 C18          2.3824     1.4162    -0.0077 C.ar         1    LIG   0.0000
  19 C19          2.3953     0.0257    -0.0205 C.ar         1    LIG   0.0000
  20 C20          3.6615    -0.6793    -0.0364 C.2          1    LIG   0.0000
  21 O21          4.6197    -0.1801    -0.5585 O.2          1    LIG   0.0000
  22 C22          3.7705    -1.9878     0.5787 C.2          1    LIG   0.0000
  23 C23          3.0393    -2.4563     1.6878 C.2          1    LIG   0.0000
  24 C24          1.9853    -1.6995     2.4805 C.3          1    LIG   0.0000
  25 N25          3.4407    -3.6781     1.9190 N.2          1    LIG   0.0000
  26 N26          4.3605    -4.0372     1.0548 N.pl3        1    LIG   0.0000
  27 C27          4.9921    -5.2857     0.9979 C.ar         1    LIG   0.0000
  28 C28          5.3565    -5.9271     2.1771 C.ar         1    LIG   0.0000
  29 C29          5.9840    -7.1667     2.1111 C.ar         1    LIG   0.0000
  30 C30          6.2408    -7.7522     0.8751 C.ar         1    LIG   0.0000
  31 C31          5.8726    -7.1037    -0.2992 C.ar         1    LIG   0.0000
  32 C32          5.2451    -5.8632    -0.2421 C.ar         1    LIG   0.0000
  33 C33          4.6082    -2.9975     0.2080 C.2          1    LIG   0.0000
  34 O34          5.4986    -2.9914    -0.8026 O.3          1    LIG  -1.0000
  35 C35          1.2016    -0.6895    -0.0163 C.ar         1    LIG   0.0000
  36 C36         -0.0137    -0.0137    -0.0015 C.ar         1    LIG   0.0000
  37 H           -3.2522     3.5197     1.3742 H            1    LIG   0.0000
  38 H           -3.0778     5.1318     1.5675 H            1    LIG   0.0000
  39 H           -4.2011     4.5501     0.5348 H            1    LIG   0.0000
  40 H           -2.4371     6.7879    -3.3937 H            1    LIG   0.0000
  41 H           -1.5594     8.2329    -5.0917 H            1    LIG   0.0000
  42 H            0.7861     8.2547    -5.5452 H            1    LIG   0.0000
  43 H            2.2635     6.8403    -4.3117 H            1    LIG   0.0000
  44 H            1.3934     5.3906    -2.6132 H            1    LIG   0.0000
  45 H            1.1552     3.1001     0.0158 H            1    LIG   0.0000
  46 H            3.2436     1.9244    -0.0092 H            1    LIG   0.0000
  47 H            1.8694    -0.7850     2.0928 H            1    LIG   0.0000
  48 H            1.1166    -2.1929     2.4360 H            1    LIG   0.0000
  49 H            2.2766    -1.6228     3.4341 H            1    LIG   0.0000
  50 H            5.1693    -5.5018     3.0626 H            1    LIG   0.0000
  51 H            6.2508    -7.6372     2.9522 H            1    LIG   0.0000
  52 H            6.6921    -8.6435     0.8309 H            1    LIG   0.0000
  53 H            6.0591    -7.5292    -1.1847 H            1    LIG   0.0000
  54 H            4.9789    -5.3921    -1.0830 H            1    LIG   0.0000
  55 H            1.2177    -1.6893    -0.0240 H            1    LIG   0.0000
  56 H           -0.8750    -0.5218     0.0008 H            1    LIG   0.0000
@<TRIPOS>BOND
   1        1        2 1
   2        2        3 2
   3        3        4 1
   4        4        5 1
   5        5        6 ar
   6        6        7 ar
   7        7        8 ar
   8        8        9 ar
   9        9       10 ar
  10       10        5 ar
  11        4       11 1
  12       11       12 1
  13       11       13 2
  14       13        2 1
  15       13       14 1
  16       14       15 2
  17       14       16 1
  18       16       17 ar
  19       17       18 ar
  20       18       19 ar
  21       19       20 1
  22       20       21 2
  23       20       22 1
  24       22       23 1
  25       23       24 1
  26       23       25 2
  27       25       26 1
  28       26       27 1
  29       27       28 ar
  30       28       29 ar
  31       29       30 ar
  32       30       31 ar
  33       31       32 ar
  34       32       27 ar
  35       26       33 1
  36       33       22 2
  37       33       34 1
  38       19       35 ar
  39       35       36 ar
  40       36       16 ar
  41        1       37 1
  42        1       38 1
  43        1       39 1
  44        6       40 1
  45        7       41 1
  46        8       42 1
  47        9       43 1
  48       10       44 1
  49       17       45 1
  50       18       46 1
  51       24       47 1
  52       24       48 1
  53       24       49 1
  54       28       50 1
  55       29       51 1
  56       30       52 1
  57       31       53 1
  58       32       54 1
  59       35       55 1
  60       36       56 1

@<TRIPOS>MOLECULE

  56   60
SMALL
USER_CHARGES
@<TRIPOS>ATOM
   1 C1          -3.2863     4.4059     0.9121 C.3          1    LIG   0.0000
   2 C2          -2.2642     4.4302    -0.2135 C.2          1    LIG   0.0000
   3 N3          -2.0393     5.4316    -1.0222 N.2          1    LIG   0.0000
   4 N4          -1.0939     5.1325    -1.8817 N.pl3        1    LIG   0.0000
   5 C5          -0.5879     5.9801    -2.8748 C.ar         1    LIG   0.0000
   6 C6          -1.4562     6.8006    -3.5875 C.ar         1    LIG   0.0000
   7 C7          -0.9449     7.6388    -4.5727 C.ar         1    LIG   0.0000
   8 C8           0.4214     7.6510    -4.8363 C.ar         1    LIG   0.0000
   9 C9           1.2825     6.8273    -4.1185 C.ar         1    LIG   0.0000
  10 C10          0.7792     5.9854    -3.1318 C.ar         1    LIG   0.0000
  11 C11         -0.6719     3.8559    -1.6553 C.2          1    LIG   0.0000
  12 O12          0.2794     3.1996    -2.3471 O.3          1    LIG  -1.0000
  13 C13         -1.3879     3.3940    -0.5910 C.2          1    LIG   0.0000
  14 C14         -1.2821     2.0859     0.0254 C.2          1    LIG   0.0000
  15 O15         -2.2415     1.5896     0.5482 O.2          1    LIG   0.0000
  16 C16         -0.0173     1.3776     0.0102 C.ar         1    LIG   0.0000
  17 C17          1.1713     2.1003     0.0072 C.ar         1    LIG   0.0000
  18 C18          2.3824     1.4162    -0.0077 C.ar         1    LIG   0.0000
  19 C19          2.3953     0.0257    -0.0205 C.ar         1    LIG   0.0000
  20 C20          3.6615    -0.6793    -0.0364 C.2          1    LIG   0.0000
  21 O21          4.6274    -0.1896     0.4806 O.2          1    LIG   0.0000
  22 C22          3.7612    -1.9763    -0.6769 C.2          1    LIG   0.0000
  23 C23          4.6454    -3.0166    -0.3304 C.2          1    LIG   0.0000
  24 C24          5.6841    -3.0091     0.7801 C.3          1    LIG   0.0000
  25 N25          4.4109    -4.0044    -1.1530 N.2          1    LIG   0.0000
  26 N26          3.4521    -3.6930    -1.9930 N.pl3        1    LIG   0.0000
  27 C27          2.9334    -4.5246    -2.9931 C.ar         1    LIG   0.0000
  28 C28          3.7928    -5.3303    -3.7327 C.ar         1    LIG   0.0000
  29 C29          3.2689    -6.1527    -4.7246 C.ar         1    LIG   0.0000
  30 C30          1.8989    -6.1639    -4.9681 C.ar         1    LIG   0.0000
  31 C31          1.0467    -5.3550    -4.2234 C.ar         1    LIG   0.0000
  32 C32          1.5626    -4.5290    -3.2298 C.ar         1    LIG   0.0000
  33 C33          3.0305    -2.4215    -1.7383 C.2          1    LIG   0.0000
  34 O34          2.0674    -1.7559    -2.4044 O.3          1    LIG  -1.0000
  35 C35          1.2016    -0.6895    -0.0163 C.ar         1    LIG   0.0000
  36 C36         -0.0137    -0.0137    -0.0015 C.ar         1    LIG   0.0000
  37 H           -3.2522     3.5197     1.3742 H            1    LIG   0.0000
  38 H           -3.0778     5.1318     1.5675 H            1    LIG   0.0000
  39 H           -4.2011     4.5501     0.5348 H            1    LIG   0.0000
  40 H           -2.4371     6.7879    -3.3937 H            1    LIG   0.0000
  41 H           -1.5594     8.2329    -5.0917 H            1    LIG   0.0000
  42 H            0.7861     8.2547    -5.5452 H            1    LIG   0.0000
  43 H            2.2635     6.8403    -4.3117 H            1    LIG   0.0000
  44 H            1.3934     5.3906    -2.6132 H            1    LIG   0.0000
  45 H            1.1552     3.1001     0.0158 H            1    LIG   0.0000
  46 H            3.2436     1.9244    -0.0092 H            1    LIG   0.0000
  47 H            5.6548    -2.1311     1.2579 H            1    LIG   0.0000
  48 H            5.4871    -3.7468     1.4258 H            1    LIG   0.0000
  49 H            6.5935    -3.1443     0.3868 H            1    LIG   0.0000
  50 H            4.7765    -5.3185    -3.5532 H            1    LIG   0.0000
  51 H            3.8770    -6.7362    -5.2629 H            1    LIG   0.0000
  52 H            1.5251    -6.7562    -5.6818 H            1    LIG   0.0000
  53 H            0.0629    -5.3672    -4.4022 H            1    LIG   0.0000
  54 H            0.9548    -3.9449    -2.6919 H            1    LIG   0.0000
  55 H            1.2177    -1.6893    -0.0240 H            1    LIG   0.0000
  56 H           -0.8750    -0.5218     0.0008 H            1    LIG   0.0000
@<TRIPOS>BOND
   1        1        2 1
   2        2        3 2
   3        3        4 1
   4        4        5 1
   5        5        6 ar
   6        6        7 ar
   7        7        8 ar
   8        8        9 ar
   9        9       10 ar
  10       10        5 ar
  11        4       11 1
  12       11       12 1
  13       11       13 2
  14       13        2 1
  15       13       14 1
  16       14       15 2
  17       14       16 1
  18       16       17 ar
  19       17       18 ar
  20       18       19 ar
  21       19       20 1
  22       20       21 2
  23       20       22 1
  24       22       23 1
  25       23       24 1
  26       23       25 2
  27       25       26 1
  28       26       27 1
  29       27       28 ar
  30       28       29 ar
  31       29       30 ar
  32       30       31 ar
  33       31       32 ar
  34       32       27 ar
  35       26       33 1
  36       33       22 2
  37       33       34 1
  38       19       35 ar
  39       35       36 ar
  40       36       16 ar
  41        1       37 1
  42        1       38 1
  43        1       39 1
  44        6       40 1
  45        7       41 1
  46        8       42 1
  47        9       43 1
  48       10       44 1
  49       17       45 1
  50       18       46 1
  51       24       47 1
  52       24       48 1
  53       24       49 1
  54       28       50 1
  55       29       51 1
  56       30       52 1
  57       31       53 1
  58       32       54 1
  59       35       55 1
  60       36       56 1

@<TRIPOS>MOLECULE

  56   60
SMALL
USER_CHARGES
@<TRIPOS>ATOM
   1 C1          -3.2863     4.4059     0.9121 C.3          1    LIG   0.0000
   2 C2          -2.2642     4.4302    -0.2135 C.2          1    LIG   0.0000
   3 N3          -2.0393     5.4316    -1.0222 N.2          1    LIG   0.0000
   4 N4          -1.0939     5.1325    -1.8817 N.pl3        1    LIG   0.0000
   5 C5          -0.5879     5.9801    -2.8748 C.ar         1    LIG   0.0000
   6 C6          -1.4562     6.8006    -3.5875 C.ar         1    LIG   0.0000
   7 C7          -0.9449     7.6388    -4.5727 C.ar         1    LIG   0.0000
   8 C8           0.4214     7.6510    -4.8363 C.ar         1    LIG   0.0000
   9 C9           1.2825     6.8273    -4.1185 C.ar         1    LIG   0.0000
  10 C10          0.7792     5.9854    -3.1318 C.ar         1    LIG   0.0000
  11 C11         -0.6719     3.8559    -1.6553 C.2          1    LIG   0.0000
  12 O12          0.2794     3.1996    -2.3471 O.3          1    LIG  -1.0000
  13 C13         -1.3879     3.3940    -0.5910 C.2          1    LIG   0.0000
  14 C14         -1.2821     2.0859     0.0254 C.2          1    LIG   0.0000
  15 O15         -2.2415     1.5896     0.5482 O.2          1    LIG   0.0000
  16 C16         -0.0173     1.3776     0.0102 C.ar         1    LIG   0.0000
  17 C17          1.1713     2.1003     0.0072 C.ar         1    LIG   0.0000
  18 C18          2.3824     1.4162    -0.0077 C.ar         1    LIG   0.0000
  19 C19          2.3953     0.0257    -0.0205 C.ar         1    LIG   0.0000
  20 C20          3.6615    -0.6793    -0.0364 C.2          1    LIG   0.0000
  21 O21          3.7517    -1.7622     0.4727 O.2          1    LIG   0.0000
  22 C22          4.8193    -0.0761    -0.6673 C.2          1    LIG   0.0000
  23 C23          6.1660    -0.2587    -0.2970 C.2          1    LIG   0.0000
  24 C24          6.6992    -1.1186     0.8380 C.3          1    LIG   0.0000
  25 N25          6.8862     0.4605    -1.1164 N.2          1    LIG   0.0000
  26 N26          6.1227     1.0844    -1.9822 N.pl3        1    LIG   0.0000
  27 C27          6.5644     1.9209    -3.0146 C.ar         1    LIG   0.0000
  28 C28          7.6170     2.8009    -2.7849 C.ar         1    LIG   0.0000
  29 C29          8.0488     3.6286    -3.8159 C.ar         1    LIG   0.0000
  30 C30          7.4296     3.5709    -5.0608 C.ar         1    LIG   0.0000
  31 C31          6.3779     2.6877    -5.2818 C.ar         1    LIG   0.0000
  32 C32          5.9394     1.8568    -4.2557 C.ar         1    LIG   0.0000
  33 C33          4.8175     0.7876    -1.7221 C.2          1    LIG   0.0000
  34 O34          3.7479     1.2527    -2.3960 O.3          1    LIG  -1.0000
  35 C35          1.2016    -0.6895    -0.0163 C.ar         1    LIG   0.0000
  36 C36         -0.0137    -0.0137    -0.0015 C.ar         1    LIG   0.0000
  37 H           -3.2522     3.5197     1.3742 H            1    LIG   0.0000
  38 H           -3.0778     5.1318     1.5675 H            1    LIG   0.0000
  39 H           -4.2011     4.5501     0.5348 H            1    LIG   0.0000
  40 H           -2.4371     6.7879    -3.3937 H            1    LIG   0.0000
  41 H           -1.5594     8.2329    -5.0917 H            1    LIG   0.0000
  42 H            0.7861     8.2547    -5.5452 H            1    LIG   0.0000
  43 H            2.2635     6.8403    -4.3117 H            1    LIG   0.0000
  44 H            1.3934     5.3906    -2.6132 H            1    LIG   0.0000
  45 H            1.1552     3.1001     0.0158 H            1    LIG   0.0000
  46 H            3.2436     1.9244    -0.0092 H            1    LIG   0.0000
  47 H            5.9355    -1.5619     1.3074 H            1    LIG   0.0000
  48 H            7.3130    -1.8160     0.4679 H            1    LIG   0.0000
  49 H            7.1996    -0.5436     1.4852 H            1    LIG   0.0000
  50 H            8.0584     2.8379    -1.8883 H            1    LIG   0.0000
  51 H            8.8044     4.2654    -3.6625 H            1    LIG   0.0000
  52 H            7.7423     4.1673    -5.8002 H            1    LIG   0.0000
  53 H            5.9368     2.6501    -6.1785 H            1    LIG   0.0000
  54 H            5.1833     1.2204    -4.4087 H            1    LIG   0.0000
  55 H            1.2177    -1.6893    -0.0240 H            1    LIG   0.0000
  56 H           -0.8750    -0.5218     0.0008 H            1    LIG   0.0000
@<TRIPOS>BOND
   1        1        2 1
   2        2        3 2
   3        3        4 1
   4        4        5 1
   5        5        6 ar
   6        6        7 ar
   7        7        8 ar
   8        8        9 ar
   9        9       10 ar
  10       10        5 ar
  11        4       11 1
  12       11       12 1
  13       11       13 2
  14       13        2 1
  15       13       14 1
  16       14       15 2
  17       14       16 1
  18       16       17 ar
  19       17       18 ar
  20       18       19 ar
  21       19       20 1
  22       20       21 2
  23       20       22 1
  24       22       23 1
  25       23       24 1
  26       23       25 2
  27       25       26 1
  28       26       27 1
  29       27       28 ar
  30       28       29 ar
  31       29       30 ar
  32       30       31 ar
  33       31       32 ar
  34       32       27 ar
  35       26       33 1
  36       33       22 2
  37       33       34 1
  38       19       35 ar
  39       35       36 ar
  40       36       16 ar
  41        1       37 1
  42        1       38 1
  43        1       39 1
  44        6       40 1
  45        7       41 1
  46        8       42 1
  47        9       43 1
  48       10       44 1
  49       17       45 1
  50       18       46 1
  51       24       47 1
  52       24       48 1
  53       24       49 1
  54       28       50 1
  55       29       51 1
  56       30       52 1
  57       31       53 1
  58       32       54 1
  59       35       55 1
  60       36       56 1

@<TRIPOS>MOLECULE

  56   60
SMALL
USER_CHARGES
@<TRIPOS>ATOM
   1 C1          -4.3053     2.5171     0.9524 C.3          1    LIG   0.0000
   2 C2          -3.7913     1.6757    -0.2052 C.2          1    LIG   0.0000
   3 N3          -4.5255     0.9725    -1.0261 N.2          1    LIG   0.0000
   4 N4          -3.7765     0.3619    -1.9138 N.pl3        1    LIG   0.0000
   5 C5          -4.2357    -0.4555    -2.9538 C.ar         1    LIG   0.0000
   6 C6          -5.2870    -1.3368    -2.7237 C.ar         1    LIG   0.0000
   7 C7          -5.7362    -2.1455    -3.7624 C.ar         1    LIG   0.0000
   8 C8          -5.1355    -2.0678    -5.0152 C.ar         1    LIG   0.0000
   9 C9          -4.0848    -1.1833    -5.2364 C.ar         1    LIG   0.0000
  10 C10         -3.6290    -0.3713    -4.2028 C.ar         1    LIG   0.0000
  11 C11         -2.4668     0.6512    -1.6681 C.2          1    LIG   0.0000
  12 O12         -1.4086     0.1953    -2.3657 O.3          1    LIG  -1.0000
  13 C13         -2.4507     1.4965    -0.5985 C.2          1    LIG   0.0000
  14 C14         -1.2821     2.0859     0.0254 C.2          1    LIG   0.0000
  15 O15         -1.3619     3.1600     0.5545 O.2          1    LIG   0.0000
  16 C16         -0.0173     1.3776     0.0102 C.ar         1    LIG   0.0000
  17 C17          1.1713     2.1003     0.0072 C.ar         1    LIG   0.0000
  18 C18          2.3824     1.4162    -0.0077 C.ar         1    LIG   0.0000
  19 C19          2.3953     0.0257    -0.0205 C.ar         1    LIG   0.0000
  20 C20          3.6615    -0.6793    -0.0364 C.2          1    LIG   0.0000
  21 O21          4.6197    -0.1801    -0.5585 O.2          1    LIG   0.0000
  22 C22          3.7705    -1.9878     0.5787 C.2          1    LIG   0.0000
  23 C23          3.0393    -2.4563     1.6878 C.2          1    LIG   0.0000
  24 C24          1.9853    -1.6995     2.4805 C.3          1    LIG   0.0000
  25 N25          3.4407    -3.6781     1.9190 N.2          1    LIG   0.0000
  26 N26          4.3605    -4.0372     1.0548 N.pl3        1    LIG   0.0000
  27 C27          4.9921    -5.2857     0.9979 C.ar         1    LIG   0.0000
  28 C28          5.3565    -5.9271     2.1771 C.ar         1    LIG   0.0000
  29 C29          5.9840    -7.1667     2.1111 C.ar         1    LIG   0.0000
  30 C30          6.2408    -7.7522     0.8751 C.ar         1    LIG   0.0000
  31 C31          5.8726    -7.1037    -0.2992 C.ar         1    LIG   0.0000
  32 C32          5.2451    -5.8632    -0.2421 C.ar         1    LIG   0.0000
  33 C33          4.6082    -2.9975     0.2080 C.2          1    LIG   0.0000
  34 O34          5.4986    -2.9914    -0.8026 O.3          1    LIG  -1.0000
  35 C35          1.2016    -0.6895    -0.0163 C.ar         1    LIG   0.0000
  36 C36         -0.0137    -0.0137    -0.0015 C.ar         1    LIG   0.0000
  37 H           -3.5337     2.9504     1.4180 H            1    LIG   0.0000
  38 H           -4.9228     3.2222     0.6036 H            1    LIG   0.0000
  39 H           -4.7976     1.9321     1.5969 H            1    LIG   0.0000
  40 H           -5.7152    -1.3883    -1.8215 H            1    LIG   0.0000
  41 H           -6.4911    -2.7831    -3.6088 H            1    LIG   0.0000
  42 H           -5.4606    -2.6505    -5.7600 H            1    LIG   0.0000
  43 H           -3.6570    -1.1312    -6.1388 H            1    LIG   0.0000
  44 H           -2.8735     0.2658    -4.3559 H            1    LIG   0.0000
  45 H            1.1552     3.1001     0.0158 H            1    LIG   0.0000
  46 H            3.2436     1.9244    -0.0092 H            1    LIG   0.0000
  47 H            1.8694    -0.7850     2.0928 H            1    LIG   0.0000
  48 H            1.1166    -2.1929     2.4360 H            1    LIG   0.0000
  49 H            2.2766    -1.6228     3.4341 H            1    LIG   0.0000
  50 H            5.1693    -5.5018     3.0626 H            1    LIG   0.0000
  51 H            6.2508    -7.6372     2.9522 H            1    LIG   0.0000
  52 H            6.6921    -8.6435     0.8309 H            1    LIG   0.0000
  53 H            6.0591    -7.5292    -1.1847 H            1    LIG   0.0000
  54 H            4.9789    -5.3921    -1.0830 H            1    LIG   0.0000
  55 H            1.2177    -1.6893    -0.0240 H            1    LIG   0.0000
  56 H           -0.8750    -0.5218     0.0008 H            1    LIG   0.0000
@<TRIPOS>BOND
   1        1        2 1
   2        2        3 2
   3        3        4 1
   4        4        5 1
   5        5        6 ar
   6        6        7 ar
   7        7        8 ar
   8        8        9 ar
   9        9       10 ar
  10       10        5 ar
  11        4       11 1
  12       11       12 1
  13       11       13 2
  14       13        2 1
  15       13       14 1
  16       14       15 2
  17       14       16 1
  18       16       17 ar
  19       17       18 ar
  20       18       19 ar
  21       19       20 1
  22       20       21 2
  23       20       22 1
  24       22       23 1
  25       23       24 1
  26       23       25 2
  27       25       26 1
  28       26       27 1
  29       27       28 ar
  30       28       29 ar
  31       29       30 ar
  32       30       31 ar
  33       31       32 ar
  34       32       27 ar
  35       26       33 1
  36       33       22 2
  37       33       34 1
  38       19       35 ar
  39       35       36 ar
  40       36       16 ar
  41        1       37 1
  42        1       38 1
  43        1       39 1
  44        6       40 1
  45        7       41 1
  46        8       42 1
  47        9       43 1
  48       10       44 1
  49       17       45 1
  50       18       46 1
  51       24       47 1
  52       24       48 1
  53       24       49 1
  54       28       50 1
  55       29       51 1
  56       30       52 1
  57       31       53 1
  58       32       54 1
  59       35       55 1
  60       36       56 1

@<TRIPOS>MOLECULE

  56   60
SMALL
USER_CHARGES
@<TRIPOS>ATOM
   1 C1          -1.2608     0.1405    -2.5044 C.3          1    LIG   0.0000
   2 C2          -2.4613     0.6356    -1.7134 C.2          1    LIG   0.0000
   3 N3          -3.7112     0.3381    -1.9519 N.2          1    LIG   0.0000
   4 N4          -4.5030     0.9271    -1.0870 N.pl3        1    LIG   0.0000
   5 C5          -5.8974     0.8096    -1.0368 C.ar         1    LIG   0.0000
   6 C6          -6.6297     0.7912    -2.2193 C.ar         1    LIG   0.0000
   7 C7          -8.0145     0.6749    -2.1599 C.ar         1    LIG   0.0000
   8 C8          -8.6529     0.5781    -0.9272 C.ar         1    LIG   0.0000
   9 C9          -7.9126     0.5971     0.2504 C.ar         1    LIG   0.0000
  10 C10         -6.5271     0.7138     0.1999 C.ar         1    LIG   0.0000
  11 C11         -3.7513     1.6776    -0.2321 C.2          1    LIG   0.0000
  12 O12         -4.2174     2.4321     0.7817 O.3          1    LIG  -1.0000
  13 C13         -2.4507     1.4965    -0.5985 C.2          1    LIG   0.0000
  14 C14         -1.2821     2.0859     0.0254 C.2          1    LIG   0.0000
  15 O15         -1.3619     3.1600     0.5545 O.2          1    LIG   0.0000
  16 C16         -0.0173     1.3776     0.0102 C.ar         1    LIG   0.0000
  17 C17          1.1713     2.1003     0.0072 C.ar         1    LIG   0.0000
  18 C18          2.3824     1.4162    -0.0077 C.ar         1    LIG   0.0000
  19 C19          2.3953     0.0257    -0.0205 C.ar         1    LIG   0.0000
  20 C20          3.6615    -0.6793    -0.0364 C.2          1    LIG   0.0000
  21 O21          4.6197    -0.1801    -0.5585 O.2          1    LIG   0.0000
  22 C22          3.7705    -1.9878     0.5787 C.2          1    LIG   0.0000
  23 C23          3.0393    -2.4563     1.6878 C.2          1    LIG   0.0000
  24 C24          1.9853    -1.6995     2.4805 C.3          1    LIG   0.0000
  25 N25          3.4407    -3.6781     1.9190 N.2          1    LIG   0.0000
  26 N26          4.3605    -4.0372     1.0548 N.pl3        1    LIG   0.0000
  27 C27          4.9921    -5.2857     0.9979 C.ar         1    LIG   0.0000
  28 C28          5.3565    -5.9271     2.1771 C.ar         1    LIG   0.0000
  29 C29          5.9840    -7.1667     2.1111 C.ar         1    LIG   0.0000
  30 C30          6.2408    -7.7522     0.8751 C.ar         1    LIG   0.0000
  31 C31          5.8726    -7.1037    -0.2992 C.ar         1    LIG   0.0000
  32 C32          5.2451    -5.8632    -0.2421 C.ar         1    LIG   0.0000
  33 C33          4.6082    -2.9975     0.2080 C.2          1    LIG   0.0000
  34 O34          5.4986    -2.9914    -0.8026 O.3          1    LIG  -1.0000
  35 C35          1.2016    -0.6895    -0.0163 C.ar         1    LIG   0.0000
  36 C36         -0.0137    -0.0137    -0.0015 C.ar         1    LIG   0.0000
  37 H           -0.4231     0.5190    -2.1106 H            1    LIG   0.0000
  38 H           -1.2254    -0.8581    -2.4664 H            1    LIG   0.0000
  39 H           -1.3443     0.4351    -3.4564 H            1    LIG   0.0000
  40 H           -6.1657     0.8609    -3.1024 H            1    LIG   0.0000
  41 H           -8.5515     0.6608    -3.0033 H            1    LIG   0.0000
  42 H           -9.6486     0.4946    -0.8876 H            1    LIG   0.0000
  43 H           -8.3764     0.5268     1.1335 H            1    LIG   0.0000
  44 H           -5.9899     0.7286     1.0433 H            1    LIG   0.0000
  45 H            1.1552     3.1001     0.0158 H            1    LIG   0.0000
  46 H            3.2436     1.9244    -0.0092 H            1    LIG   0.0000
  47 H            1.8694    -0.7850     2.0928 H            1    LIG   0.0000
  48 H            1.1166    -2.1929     2.4360 H            1    LIG   0.0000
  49 H            2.2766    -1.6228     3.4341 H            1    LIG   0.0000
  50 H            5.1693    -5.5018     3.0626 H            1    LIG   0.0000
  51 H            6.2508    -7.6372     2.9522 H            1    LIG   0.0000
  52 H            6.6921    -8.6435     0.8309 H            1    LIG   0.0000
  53 H            6.0591    -7.5292    -1.1847 H            1    LIG   0.0000
  54 H            4.9789    -5.3921    -1.0830 H            1    LIG   0.0000
  55 H            1.2177    -1.6893    -0.0240 H            1    LIG   0.0000
  56 H           -0.8750    -0.5218     0.0008 H            1    LIG   0.0000
@<TRIPOS>BOND
   1        1        2 1
   2        2        3 2
   3        3        4 1
   4        4        5 1
   5        5        6 ar
   6        6        7 ar
   7        7        8 ar
   8        8        9 ar
   9        9       10 ar
  10       10        5 ar
  11        4       11 1
  12       11       12 1
  13       11       13 2
  14       13        2 1
  15       13       14 1
  16       14       15 2
  17       14       16 1
  18       16       17 ar
  19       17       18 ar
  20       18       19 ar
  21       19       20 1
  22       20       21 2
  23       20       22 1
  24       22       23 1
  25       23       24 1
  26       23       25 2
  27       25       26 1
  28       26       27 1
  29       27       28 ar
  30       28       29 ar
  31       29       30 ar
  32       30       31 ar
  33       31       32 ar
  34       32       27 ar
  35       26       33 1
  36       33       22 2
  37       33       34 1
  38       19       35 ar
  39       35       36 ar
  40       36       16 ar
  41        1       37 1
  42        1       38 1
  43        1       39 1
  44        6       40 1
  45        7       41 1
  46        8       42 1
  47        9       43 1
  48       10       44 1
  49       17       45 1
  50       18       46 1
  51       24       47 1
  52       24       48 1
  53       24       49 1
  54       28       50 1
  55       29       51 1
  56       30       52 1
  57       31       53 1
  58       32       54 1
  59       35       55 1
  60       36       56 1

@<TRIPOS>MOLECULE

  56   60
SMALL
USER_CHARGES
@<TRIPOS>ATOM
   1 C1          -1.2608     0.1405    -2.5044 C.3          1    LIG   0.0000
   2 C2          -2.4613     0.6356    -1.7134 C.2          1    LIG   0.0000
   3 N3          -3.7112     0.3381    -1.9519 N.2          1    LIG   0.0000
   4 N4          -4.5030     0.9271    -1.0870 N.pl3        1    LIG   0.0000
   5 C5          -5.8974     0.8096    -1.0368 C.ar         1    LIG   0.0000
   6 C6          -6.6297     0.7912    -2.2193 C.ar         1    LIG   0.0000
   7 C7          -8.0145     0.6749    -2.1599 C.ar         1    LIG   0.0000
   8 C8          -8.6529     0.5781    -0.9272 C.ar         1    LIG   0.0000
   9 C9          -7.9126     0.5971     0.2504 C.ar         1    LIG   0.0000
  10 C10         -6.5271     0.7138     0.1999 C.ar         1    LIG   0.0000
  11 C11         -3.7513     1.6776    -0.2321 C.2          1    LIG   0.0000
  12 O12         -4.2174     2.4321     0.7817 O.3          1    LIG  -1.0000
  13 C13         -2.4507     1.4965    -0.5985 C.2          1    LIG   0.0000
  14 C14         -1.2821     2.0859     0.0254 C.2          1    LIG   0.0000
  15 O15         -1.3619     3.1600     0.5545 O.2          1    LIG   0.0000
  16 C16         -0.0173     1.3776     0.0102 C.ar         1    LIG   0.0000
  17 C17          1.1713     2.1003     0.0072 C.ar         1    LIG   0.0000
  18 C18          2.3824     1.4162    -0.0077 C.ar         1    LIG   0.0000
  19 C19          2.3953     0.0257    -0.0205 C.ar         1    LIG   0.0000
  20 C20          3.6615    -0.6793    -0.0364 C.2          1    LIG   0.0000
  21 O21          4.6274    -0.1896     0.4806 O.2          1    LIG   0.0000
  22 C22          3.7612    -1.9763    -0.6769 C.2          1    LIG   0.0000
  23 C23          4.6454    -3.0166    -0.3304 C.2          1    LIG   0.0000
  24 C24          5.6841    -3.0091     0.7801 C.3          1    LIG   0.0000
  25 N25          4.4109    -4.0044    -1.1530 N.2          1    LIG   0.0000
  26 N26          3.4521    -3.6930    -1.9930 N.pl3        1    LIG   0.0000
  27 C27          2.9334    -4.5246    -2.9931 C.ar         1    LIG   0.0000
  28 C28          3.7928    -5.3303    -3.7327 C.ar         1    LIG   0.0000
  29 C29          3.2689    -6.1527    -4.7246 C.ar         1    LIG   0.0000
  30 C30          1.8989    -6.1639    -4.9681 C.ar         1    LIG   0.0000
  31 C31          1.0467    -5.3550    -4.2234 C.ar         1    LIG   0.0000
  32 C32          1.5626    -4.5290    -3.2298 C.ar         1    LIG   0.0000
  33 C33          3.0305    -2.4215    -1.7383 C.2          1    LIG   0.0000
  34 O34          2.0674    -1.7559    -2.4044 O.3          1    LIG  -1.0000
  35 C35          1.2016    -0.6895    -0.0163 C.ar         1    LIG   0.0000
  36 C36         -0.0137    -0.0137    -0.0015 C.ar         1    LIG   0.0000
  37 H           -0.4231     0.5190    -2.1106 H            1    LIG   0.0000
  38 H           -1.2254    -0.8581    -2.4664 H            1    LIG   0.0000
  39 H           -1.3443     0.4351    -3.4564 H            1    LIG   0.0000
  40 H           -6.1657     0.8609    -3.1024 H            1    LIG   0.0000
  41 H           -8.5515     0.6608    -3.0033 H            1    LIG   0.0000
  42 H           -9.6486     0.4946    -0.8876 H            1    LIG   0.0000
  43 H           -8.3764     0.5268     1.1335 H            1    LIG   0.0000
  44 H           -5.9899     0.7286     1.0433 H            1    LIG   0.0000
  45 H            1.1552     3.1001     0.0158 H            1    LIG   0.0000
  46 H            3.2436     1.9244    -0.0092 H            1    LIG   0.0000
  47 H            5.6548    -2.1311     1.2579 H            1    LIG   0.0000
  48 H            5.4871    -3.7468     1.4258 H            1    LIG   0.0000
  49 H            6.5935    -3.1443     0.3868 H            1    LIG   0.0000
  50 H            4.7765    -5.3185    -3.5532 H            1    LIG   0.0000
  51 H            3.8770    -6.7362    -5.2629 H            1    LIG   0.0000
  52 H            1.5251    -6.7562    -5.6818 H            1    LIG   0.0000
  53 H            0.0629    -5.3672    -4.4022 H            1    LIG   0.0000
  54 H            0.9548    -3.9449    -2.6919 H            1    LIG   0.0000
  55 H            1.2177    -1.6893    -0.0240 H            1    LIG   0.0000
  56 H           -0.8750    -0.5218     0.0008 H            1    LIG   0.0000
@<TRIPOS>BOND
   1        1        2 1
   2        2        3 2
   3        3        4 1
   4        4        5 1
   5        5        6 ar
   6        6        7 ar
   7        7        8 ar
   8        8        9 ar
   9        9       10 ar
  10       10        5 ar
  11        4       11 1
  12       11       12 1
  13       11       13 2
  14       13        2 1
  15       13       14 1
  16       14       15 2
  17       14       16 1
  18       16       17 ar
  19       17       18 ar
  20       18       19 ar
  21       19       20 1
  22       20       21 2
  23       20       22 1
  24       22       23 1
  25       23       24 1
  26       23       25 2
  27       25       26 1
  28       26       27 1
  29       27       28 ar
  30       28       29 ar
  31       29       30 ar
  32       30       31 ar
  33       31       32 ar
  34       32       27 ar
  35       26       33 1
  36       33       22 2
  37       33       34 1
  38       19       35 ar
  39       35       36 ar
  40       36       16 ar
  41        1       37 1
  42        1       38 1
  43        1       39 1
  44        6       40 1
  45        7       41 1
  46        8       42 1
  47        9       43 1
  48       10       44 1
  49       17       45 1
  50       18       46 1
  51       24       47 1
  52       24       48 1
  53       24       49 1
  54       28       50 1
  55       29       51 1
  56       30       52 1
  57       31       53 1
  58       32       54 1
  59       35       55 1
  60       36       56 1

@<TRIPOS>MOLECULE

  56   60
SMALL
USER_CHARGES
@<TRIPOS>ATOM
   1 C1          -1.2190     0.0399     2.4739 C.3          1    LIG   0.0000
   2 C2          -2.4337     0.5833     1.7382 C.2          1    LIG   0.0000
   3 N3          -3.6803     0.2885     1.9959 N.2          1    LIG   0.0000
   4 N4          -4.4874     0.9250     1.1801 N.pl3        1    LIG   0.0000
   5 C5          -5.8860     0.8583     1.1897 C.ar         1    LIG   0.0000
   6 C6          -6.5154    -0.3612     1.4170 C.ar         1    LIG   0.0000
   7 C7          -7.9051    -0.4183     1.4240 C.ar         1    LIG   0.0000
   8 C8          -8.6506     0.7363     1.2057 C.ar         1    LIG   0.0000
   9 C9          -8.0128     1.9516     0.9795 C.ar         1    LIG   0.0000
  10 C10         -6.6231     2.0174     0.9702 C.ar         1    LIG   0.0000
  11 C11         -3.7472     1.6732     0.3131 C.2          1    LIG   0.0000
  12 O12         -4.2289     2.4523    -0.6745 O.3          1    LIG  -1.0000
  13 C13         -2.4413     1.4862     0.6571 C.2          1    LIG   0.0000
  14 C14         -1.2821     2.0859     0.0254 C.2          1    LIG   0.0000
  15 O15         -1.3697     3.1685    -0.4847 O.2          1    LIG   0.0000
  16 C16         -0.0173     1.3776     0.0102 C.ar         1    LIG   0.0000
  17 C17          1.1713     2.1003     0.0072 C.ar         1    LIG   0.0000
  18 C18          2.3824     1.4162    -0.0077 C.ar         1    LIG   0.0000
  19 C19          2.3953     0.0257    -0.0205 C.ar         1    LIG   0.0000
  20 C20          3.6615    -0.6793    -0.0364 C.2          1    LIG   0.0000
  21 O21          4.6274    -0.1896     0.4806 O.2          1    LIG   0.0000
  22 C22          3.7612    -1.9763    -0.6769 C.2          1    LIG   0.0000
  23 C23          2.9922    -2.4358    -1.7639 C.2          1    LIG   0.0000
  24 C24          1.8950    -1.6814    -2.4981 C.3          1    LIG   0.0000
  25 N25          3.3960    -3.6499    -2.0288 N.2          1    LIG   0.0000
  26 N26          4.3584    -4.0089    -1.2122 N.pl3        1    LIG   0.0000
  27 C27          5.0353    -5.2346    -1.2282 C.ar         1    LIG   0.0000
  28 C28          4.3280    -6.4085    -1.4662 C.ar         1    LIG   0.0000
  29 C29          5.0083    -7.6216    -1.4795 C.ar         1    LIG   0.0000
  30 C30          6.3816    -7.6522    -1.2566 C.ar         1    LIG   0.0000
  31 C31          7.0810    -6.4733    -1.0197 C.ar         1    LIG   0.0000
  32 C32          6.4080    -5.2557    -1.0040 C.ar         1    LIG   0.0000
  33 C33          4.6042    -2.9925    -0.3371 C.2          1    LIG   0.0000
  34 O34          5.5167    -3.0010     0.6536 O.3          1    LIG  -1.0000
  35 C35          1.2016    -0.6895    -0.0163 C.ar         1    LIG   0.0000
  36 C36         -0.0137    -0.0137    -0.0015 C.ar         1    LIG   0.0000
  37 H           -0.3874     0.4271     2.0757 H            1    LIG   0.0000
  38 H           -1.2744     0.2916     3.4401 H            1    LIG   0.0000
  39 H           -1.1964    -0.9563     2.3897 H            1    LIG   0.0000
  40 H           -5.9747    -1.1877     1.5735 H            1    LIG   0.0000
  41 H           -8.3687    -1.2894     1.5861 H            1    LIG   0.0000
  42 H           -9.6496     0.6920     1.2114 H            1    LIG   0.0000
  43 H           -8.5533     2.7784     0.8237 H            1    LIG   0.0000
  44 H           -6.1593     2.8882     0.8074 H            1    LIG   0.0000
  45 H            1.1552     3.1001     0.0158 H            1    LIG   0.0000
  46 H            3.2436     1.9244    -0.0092 H            1    LIG   0.0000
  47 H            1.7870    -0.7731    -2.0939 H            1    LIG   0.0000
  48 H            2.1417    -1.5897    -3.4629 H            1    LIG   0.0000
  49 H            1.0347    -2.1852    -2.4205 H            1    LIG   0.0000
  50 H            3.3412    -6.3805    -1.6260 H            1    LIG   0.0000
  51 H            4.5104    -8.4720    -1.6493 H            1    LIG   0.0000
  52 H            6.8680    -8.5259    -1.2668 H            1    LIG   0.0000
  53 H            8.0678    -6.5010    -0.8605 H            1    LIG   0.0000
  54 H            6.9056    -4.4052    -0.8335 H            1    LIG   0.0000
  55 H            1.2177    -1.6893    -0.0240 H            1    LIG   0.0000
  56 H           -0.8750    -0.5218     0.0008 H            1    LIG   0.0000
@<TRIPOS>BOND
   1        1        2 1
   2        2        3 2
   3        3        4 1
   4        4        5 1
   5        5        6 ar
   6        6        7 ar
   7        7        8 ar
   8        8        9 ar
   9        9       10 ar
  10       10        5 ar
  11        4       11 1
  12       11       12 1
  13       11       13 2
  14       13        2 1
  15       13       14 1
  16       14       15 2
  17       14       16 1
  18       16       17 ar
  19       17       18 ar
  20       18       19 ar
  21       19       20 1
  22       20       21 2
  23       20       22 1
  24       22       23 1
  25       23       24 1
  26       23       25 2
  27       25       26 1
  28       26       27 1
  29       27       28 ar
  30       28       29 ar
  31       29       30 ar
  32       30       31 ar
  33       31       32 ar
  34       32       27 ar
  35       26       33 1
  36       33       22 2
  37       33       34 1
  38       19       35 ar
  39       35       36 ar
  40       36       16 ar
  41        1       37 1
  42        1       38 1
  43        1       39 1
  44        6       40 1
  45        7       41 1
  46        8       42 1
  47        9       43 1
  48       10       44 1
  49       17       45 1
  50       18       46 1
  51       24       47 1
  52       24       48 1
  53       24       49 1
  54       28       50 1
  55       29       51 1
  56       30       52 1
  57       31       53 1
  58       32       54 1
  59       35       55 1
  60       36       56 1

@<TRIPOS>MOLECULE

  56   60
SMALL
USER_CHARGES
@<TRIPOS>ATOM
   1 C1          -1.2190     0.0399     2.4739 C.3          1    LIG   0.0000
   2 C2          -2.4337     0.5833     1.7382 C.2          1    LIG   0.0000
   3 N3          -3.6803     0.2885     1.9959 N.2          1    LIG   0.0000
   4 N4          -4.4874     0.9250     1.1801 N.pl3        1    LIG   0.0000
   5 C5          -5.8860     0.8583     1.1897 C.ar         1    LIG   0.0000
   6 C6          -6.5659     0.8387     2.4031 C.ar         1    LIG   0.0000
   7 C7          -7.9551     0.7716     2.4032 C.ar         1    LIG   0.0000
   8 C8          -8.6501     0.7252     1.1985 C.ar         1    LIG   0.0000
   9 C9          -7.9620     0.7455    -0.0103 C.ar         1    LIG   0.0000
  10 C10         -6.5724     0.8118    -0.0193 C.ar         1    LIG   0.0000
  11 C11         -3.7472     1.6732     0.3131 C.2          1    LIG   0.0000
  12 O12         -4.2289     2.4523    -0.6745 O.3          1    LIG  -1.0000
  13 C13         -2.4413     1.4862     0.6571 C.2          1    LIG   0.0000
  14 C14         -1.2821     2.0859     0.0254 C.2          1    LIG   0.0000
  15 O15         -1.3697     3.1685    -0.4847 O.2          1    LIG   0.0000
  16 C16         -0.0173     1.3776     0.0102 C.ar         1    LIG   0.0000
  17 C17          1.1713     2.1003     0.0072 C.ar         1    LIG   0.0000
  18 C18          2.3824     1.4162    -0.0077 C.ar         1    LIG   0.0000
  19 C19          2.3953     0.0257    -0.0205 C.ar         1    LIG   0.0000
  20 C20          3.6615    -0.6793    -0.0364 C.2          1    LIG   0.0000
  21 O21          3.7440    -1.7527    -0.5664 O.2          1    LIG   0.0000
  22 C22          4.8286    -0.0876     0.5883 C.2          1    LIG   0.0000
  23 C23          6.1717    -0.2875     0.2141 C.2          1    LIG   0.0000
  24 C24          6.6910    -1.1625    -0.9159 C.3          1    LIG   0.0000
  25 N25          6.9035     0.4235     1.0304 N.2          1    LIG   0.0000
  26 N26          6.1500     1.0654     1.8918 N.pl3        1    LIG   0.0000
  27 C27          6.6028     1.9337     2.8927 C.ar         1    LIG   0.0000
  28 C28          6.0264     3.1929     3.0240 C.ar         1    LIG   0.0000
  29 C29          6.4829     4.0492     4.0205 C.ar         1    LIG   0.0000
  30 C30          7.5051     3.6432     4.8730 C.ar         1    LIG   0.0000
  31 C31          8.0755     2.3820     4.7347 C.ar         1    LIG   0.0000
  32 C32          7.6252     1.5196     3.7401 C.ar         1    LIG   0.0000
  33 C33          4.8425     0.7566     1.6587 C.2          1    LIG   0.0000
  34 O34          3.7824     1.2175     2.3501 O.3          1    LIG  -1.0000
  35 C35          1.2016    -0.6895    -0.0163 C.ar         1    LIG   0.0000
  36 C36         -0.0137    -0.0137    -0.0015 C.ar         1    LIG   0.0000
  37 H           -0.3874     0.4271     2.0757 H            1    LIG   0.0000
  38 H           -1.2744     0.2916     3.4401 H            1    LIG   0.0000
  39 H           -1.1964    -0.9563     2.3897 H            1    LIG   0.0000
  40 H           -6.0613     0.8725     3.2659 H            1    LIG   0.0000
  41 H           -8.4548     0.7566     3.2693 H            1    LIG   0.0000
  42 H           -9.6489     0.6770     1.2018 H            1    LIG   0.0000
  43 H           -8.4664     0.7124    -0.8732 H            1    LIG   0.0000
  44 H           -6.0725     0.8260    -0.8853 H            1    LIG   0.0000
  45 H            1.1552     3.1001     0.0158 H            1    LIG   0.0000
  46 H            3.2436     1.9244    -0.0092 H            1    LIG   0.0000
  47 H            5.9203    -1.5950    -1.3838 H            1    LIG   0.0000
  48 H            7.2020    -0.5996    -1.5656 H            1    LIG   0.0000
  49 H            7.2923    -1.8684    -0.5415 H            1    LIG   0.0000
  50 H            5.2920     3.4793     2.4087 H            1    LIG   0.0000
  51 H            6.0764     4.9569     4.1243 H            1    LIG   0.0000
  52 H            7.8311     4.2610     5.5885 H            1    LIG   0.0000
  53 H            8.8095     2.0952     5.3503 H            1    LIG   0.0000
  54 H            8.0321     0.6121     3.6356 H            1    LIG   0.0000
  55 H            1.2177    -1.6893    -0.0240 H            1    LIG   0.0000
  56 H           -0.8750    -0.5218     0.0008 H            1    LIG   0.0000
@<TRIPOS>BOND
   1        1        2 1
   2        2        3 2
   3        3        4 1
   4        4        5 1
   5        5        6 ar
   6        6        7 ar
   7        7        8 ar
   8        8        9 ar
   9        9       10 ar
  10       10        5 ar
  11        4       11 1
  12       11       12 1
  13       11       13 2
  14       13        2 1
  15       13       14 1
  16       14       15 2
  17       14       16 1
  18       16       17 ar
  19       17       18 ar
  20       18       19 ar
  21       19       20 1
  22       20       21 2
  23       20       22 1
  24       22       23 1
  25       23       24 1
  26       23       25 2
  27       25       26 1
  28       26       27 1
  29       27       28 ar
  30       28       29 ar
  31       29       30 ar
  32       30       31 ar
  33       31       32 ar
  34       32       27 ar
  35       26       33 1
  36       33       22 2
  37       33       34 1
  38       19       35 ar
  39       35       36 ar
  40       36       16 ar
  41        1       37 1
  42        1       38 1
  43        1       39 1
  44        6       40 1
  45        7       41 1
  46        8       42 1
  47        9       43 1
  48       10       44 1
  49       17       45 1
  50       18       46 1
  51       24       47 1
  52       24       48 1
  53       24       49 1
  54       28       50 1
  55       29       51 1
  56       30       52 1
  57       31       53 1
  58       32       54 1
  59       35       55 1
  60       36       56 1

@<TRIPOS>MOLECULE

  56   60
SMALL
USER_CHARGES
@<TRIPOS>ATOM
   1 C1          -1.2190     0.0399     2.4739 C.3          1    LIG   0.0000
   2 C2          -2.4337     0.5833     1.7382 C.2          1    LIG   0.0000
   3 N3          -3.6803     0.2885     1.9959 N.2          1    LIG   0.0000
   4 N4          -4.4874     0.9250     1.1801 N.pl3        1    LIG   0.0000
   5 C5          -5.8860     0.8583     1.1897 C.ar         1    LIG   0.0000
   6 C6          -6.5659     0.8387     2.4031 C.ar         1    LIG   0.0000
   7 C7          -7.9551     0.7716     2.4032 C.ar         1    LIG   0.0000
   8 C8          -8.6501     0.7252     1.1985 C.ar         1    LIG   0.0000
   9 C9          -7.9620     0.7455    -0.0103 C.ar         1    LIG   0.0000
  10 C10         -6.5724     0.8118    -0.0193 C.ar         1    LIG   0.0000
  11 C11         -3.7472     1.6732     0.3131 C.2          1    LIG   0.0000
  12 O12         -4.2289     2.4523    -0.6745 O.3          1    LIG  -1.0000
  13 C13         -2.4413     1.4862     0.6571 C.2          1    LIG   0.0000
  14 C14         -1.2821     2.0859     0.0254 C.2          1    LIG   0.0000
  15 O15         -1.3697     3.1685    -0.4847 O.2          1    LIG   0.0000
  16 C16         -0.0173     1.3776     0.0102 C.ar         1    LIG   0.0000
  17 C17          1.1713     2.1003     0.0072 C.ar         1    LIG   0.0000
  18 C18          2.3824     1.4162    -0.0077 C.ar         1    LIG   0.0000
  19 C19          2.3953     0.0257    -0.0205 C.ar         1    LIG   0.0000
  20 C20          3.6615    -0.6793    -0.0364 C.2          1    LIG   0.0000
  21 O21          4.6274    -0.1896     0.4806 O.2          1    LIG   0.0000
  22 C22          3.7612    -1.9763    -0.6769 C.2          1    LIG   0.0000
  23 C23          4.6454    -3.0166    -0.3304 C.2          1    LIG   0.0000
  24 C24          5.6841    -3.0091     0.7801 C.3          1    LIG   0.0000
  25 N25          4.4109    -4.0044    -1.1530 N.2          1    LIG   0.0000
  26 N26          3.4521    -3.6930    -1.9930 N.pl3        1    LIG   0.0000
  27 C27          2.9334    -4.5246    -2.9931 C.ar         1    LIG   0.0000
  28 C28          1.5572    -4.6966    -3.0999 C.ar         1    LIG   0.0000
  29 C29          1.0507    -5.5251    -4.0958 C.ar         1    LIG   0.0000
  30 C30          1.9177    -6.1710    -4.9719 C.ar         1    LIG   0.0000
  31 C31          3.2926    -5.9929    -4.8579 C.ar         1    LIG   0.0000
  32 C32          3.8075    -5.1665    -3.8642 C.ar         1    LIG   0.0000
  33 C33          3.0305    -2.4215    -1.7383 C.2          1    LIG   0.0000
  34 O34          2.0674    -1.7559    -2.4044 O.3          1    LIG  -1.0000
  35 C35          1.2016    -0.6895    -0.0163 C.ar         1    LIG   0.0000
  36 C36         -0.0137    -0.0137    -0.0015 C.ar         1    LIG   0.0000
  37 H           -0.3874     0.4271     2.0757 H            1    LIG   0.0000
  38 H           -1.2744     0.2916     3.4401 H            1    LIG   0.0000
  39 H           -1.1964    -0.9563     2.3897 H            1    LIG   0.0000
  40 H           -6.0613     0.8725     3.2659 H            1    LIG   0.0000
  41 H           -8.4548     0.7566     3.2693 H            1    LIG   0.0000
  42 H           -9.6489     0.6770     1.2018 H            1    LIG   0.0000
  43 H           -8.4664     0.7124    -0.8732 H            1    LIG   0.0000
  44 H           -6.0725     0.8260    -0.8853 H            1    LIG   0.0000
  45 H            1.1552     3.1001     0.0158 H            1    LIG   0.0000
  46 H            3.2436     1.9244    -0.0092 H            1    LIG   0.0000
  47 H            5.6548    -2.1311     1.2579 H            1    LIG   0.0000
  48 H            5.4871    -3.7468     1.4258 H            1    LIG   0.0000
  49 H            6.5935    -3.1443     0.3868 H            1    LIG   0.0000
  50 H            0.9388    -4.2298    -2.4677 H            1    LIG   0.0000
  51 H            0.0632    -5.6566    -4.1822 H            1    LIG   0.0000
  52 H            1.5506    -6.7660    -5.6870 H            1    LIG   0.0000
  53 H            3.9111    -6.4591    -5.4905 H            1    LIG   0.0000
  54 H            4.7951    -5.0354    -3.7771 H            1    LIG   0.0000
  55 H            1.2177    -1.6893    -0.0240 H            1    LIG   0.0000
  56 H           -0.8750    -0.5218     0.0008 H            1    LIG   0.0000
@<TRIPOS>BOND
   1        1        2 1
   2        2        3 2
   3        3        4 1
   4        4        5 1
   5        5        6 ar
   6        6        7 ar
   7        7        8 ar
   8        8        9 ar
   9        9       10 ar
  10       10        5 ar
  11        4       11 1
  12       11       12 1
  13       11       13 2
  14       13        2 1
  15       13       14 1
  16       14       15 2
  17       14       16 1
  18       16       17 ar
  19       17       18 ar
  20       18       19 ar
  21       19       20 1
  22       20       21 2
  23       20       22 1
  24       22       23 1
  25       23       24 1
  26       23       25 2
  27       25       26 1
  28       26       27 1
  29       27       28 ar
  30       28       29 ar
  31       29       30 ar
  32       30       31 ar
  33       31       32 ar
  34       32       27 ar
  35       26       33 1
  36       33       22 2
  37       33       34 1
  38       19       35 ar
  39       35       36 ar
  40       36       16 ar
  41        1       37 1
  42        1       38 1
  43        1       39 1
  44        6       40 1
  45        7       41 1
  46        8       42 1
  47        9       43 1
  48       10       44 1
  49       17       45 1
  50       18       46 1
  51       24       47 1
  52       24       48 1
  53       24       49 1
  54       28       50 1
  55       29       51 1
  56       30       52 1
  57       31       53 1
  58       32       54 1
  59       35       55 1
  60       36       56 1

@<TRIPOS>MOLECULE

  56   60
SMALL
USER_CHARGES
@<TRIPOS>ATOM
   1 C1          -3.2458     4.4475    -0.8415 C.3          1    LIG   0.0000
   2 C2          -2.2388     4.4371     0.2978 C.2          1    LIG   0.0000
   3 N3          -2.0077     5.4220     1.1247 N.2          1    LIG   0.0000
   4 N4          -1.0797     5.0934     1.9923 N.pl3        1    LIG   0.0000
   5 C5          -0.6035     5.9014     3.0321 C.ar         1    LIG   0.0000
   6 C6          -0.4055     7.2606     2.8122 C.ar         1    LIG   0.0000
   7 C7           0.0684     8.0555     3.8506 C.ar         1    LIG   0.0000
   8 C8           0.3388     7.4898     5.0929 C.ar         1    LIG   0.0000
   9 C9           0.1376     6.1296     5.3040 C.ar         1    LIG   0.0000
  10 C10         -0.3355     5.3273     4.2705 C.ar         1    LIG   0.0000
  11 C11         -0.6467     3.8282     1.7255 C.2          1    LIG   0.0000
  12 O12          0.3075     3.1571     2.3990 O.3          1    LIG  -1.0000
  13 C13         -1.3785     3.3838     0.6646 C.2          1    LIG   0.0000
  14 C14         -1.2821     2.0859     0.0254 C.2          1    LIG   0.0000
  15 O15         -2.2492     1.5981    -0.4910 O.2          1    LIG   0.0000
  16 C16         -0.0173     1.3776     0.0102 C.ar         1    LIG   0.0000
  17 C17          1.1713     2.1003     0.0072 C.ar         1    LIG   0.0000
  18 C18          2.3824     1.4162    -0.0077 C.ar         1    LIG   0.0000
  19 C19          2.3953     0.0257    -0.0205 C.ar         1    LIG   0.0000
  20 C20          3.6615    -0.6793    -0.0364 C.2          1    LIG   0.0000
  21 O21          4.6197    -0.1801    -0.5585 O.2          1    LIG   0.0000
  22 C22          3.7705    -1.9878     0.5787 C.2          1    LIG   0.0000
  23 C23          3.0393    -2.4563     1.6878 C.2          1    LIG   0.0000
  24 C24          1.9853    -1.6995     2.4805 C.3          1    LIG   0.0000
  25 N25          3.4407    -3.6781     1.9190 N.2          1    LIG   0.0000
  26 N26          4.3605    -4.0372     1.0548 N.pl3        1    LIG   0.0000
  27 C27          4.9921    -5.2857     0.9979 C.ar         1    LIG   0.0000
  28 C28          6.3800    -5.3527     0.9343 C.ar         1    LIG   0.0000
  29 C29          6.9989    -6.5970     0.8773 C.ar         1    LIG   0.0000
  30 C30          6.2310    -7.7576     0.8845 C.ar         1    LIG   0.0000
  31 C31          4.8435    -7.6811     0.9485 C.ar         1    LIG   0.0000
  32 C32          4.2165    -6.4404     1.0052 C.ar         1    LIG   0.0000
  33 C33          4.6082    -2.9975     0.2080 C.2          1    LIG   0.0000
  34 O34          5.4986    -2.9914    -0.8026 O.3          1    LIG  -1.0000
  35 C35          1.2016    -0.6895    -0.0163 C.ar         1    LIG   0.0000
  36 C36         -0.0137    -0.0137    -0.0015 C.ar         1    LIG   0.0000
  37 H           -3.2207     3.5680    -1.3166 H            1    LIG   0.0000
  38 H           -4.1631     4.6019    -0.4742 H            1    LIG   0.0000
  39 H           -3.0160     5.1796    -1.4828 H            1    LIG   0.0000
  40 H           -0.6018     7.6618     1.9175 H            1    LIG   0.0000
  41 H            0.2148     9.0338     3.7043 H            1    LIG   0.0000
  42 H            0.6794     8.0638     5.8375 H            1    LIG   0.0000
  43 H            0.3331     5.7284     6.1988 H            1    LIG   0.0000
  44 H           -0.4813     4.3488     4.4163 H            1    LIG   0.0000
  45 H            1.1552     3.1001     0.0158 H            1    LIG   0.0000
  46 H            3.2436     1.9244    -0.0092 H            1    LIG   0.0000
  47 H            1.8694    -0.7850     2.0928 H            1    LIG   0.0000
  48 H            1.1166    -2.1929     2.4360 H            1    LIG   0.0000
  49 H            2.2766    -1.6228     3.4341 H            1    LIG   0.0000
  50 H            6.9269    -4.5155     0.9297 H            1    LIG   0.0000
  51 H            7.9960    -6.6577     0.8312 H            1    LIG   0.0000
  52 H            6.6788    -8.6507     0.8435 H            1    LIG   0.0000
  53 H            4.2966    -8.5183     0.9539 H            1    LIG   0.0000
  54 H            3.2194    -6.3795     1.0506 H            1    LIG   0.0000
  55 H            1.2177    -1.6893    -0.0240 H            1    LIG   0.0000
  56 H           -0.8750    -0.5218     0.0008 H            1    LIG   0.0000
@<TRIPOS>BOND
   1        1        2 1
   2        2        3 2
   3        3        4 1
   4        4        5 1
   5        5        6 ar
   6        6        7 ar
   7        7        8 ar
   8        8        9 ar
   9        9       10 ar
  10       10        5 ar
  11        4       11 1
  12       11       12 1
  13       11       13 2
  14       13        2 1
  15       13       14 1
  16       14       15 2
  17       14       16 1
  18       16       17 ar
  19       17       18 ar
  20       18       19 ar
  21       19       20 1
  22       20       21 2
  23       20       22 1
  24       22       23 1
  25       23       24 1
  26       23       25 2
  27       25       26 1
  28       26       27 1
  29       27       28 ar
  30       28       29 ar
  31       29       30 ar
  32       30       31 ar
  33       31       32 ar
  34       32       27 ar
  35       26       33 1
  36       33       22 2
  37       33       34 1
  38       19       35 ar
  39       35       36 ar
  40       36       16 ar
  41        1       37 1
  42        1       38 1
  43        1       39 1
  44        6       40 1
  45        7       41 1
  46        8       42 1
  47        9       43 1
  48       10       44 1
  49       17       45 1
  50       18       46 1
  51       24       47 1
  52       24       48 1
  53       24       49 1
  54       28       50 1
  55       29       51 1
  56       30       52 1
  57       31       53 1
  58       32       54 1
  59       35       55 1
  60       36       56 1

