@<TRIPOS>MOLECULE
*****
 56 60 0 0 0
SMALL
USER_CHARGES

@<TRIPOS>ATOM
      1 C1         -1.2190    0.0399    2.4739 C.3     1  LIG1        0.0000
      2 C2         -2.4337    0.5833    1.7382 C.2     1  LIG1        0.0000
      3 N3         -3.6803    0.2885    1.9959 N.2     1  LIG1        0.0000
      4 N4         -4.4874    0.9250    1.1801 N.pl3   1  LIG1        0.0000
      5 C5         -5.8860    0.8583    1.1897 C.3     1  LIG1        0.0000
      6 C6         -6.5154   -0.3612    1.4170 C.3     1  LIG1        0.0000
      7 C7         -7.9051   -0.4183    1.4240 C.3     1  LIG1        0.0000
      8 C8         -8.6506    0.7363    1.2057 C.3     1  LIG1        0.0000
      9 C9         -8.0128    1.9516    0.9795 C.3     1  LIG1        0.0000
     10 C10        -6.6231    2.0174    0.9702 C.3     1  LIG1        0.0000
     11 C11        -3.7472    1.6732    0.3131 C.2     1  LIG1        0.0000
     12 O12        -4.2289    2.4523   -0.6745 O.2     1  LIG1       -1.0000
     13 C13        -2.4413    1.4862    0.6571 C.2     1  LIG1        0.0000
     14 C14        -1.2821    2.0859    0.0254 C.2     1  LIG1        0.0000
     15 O15        -1.3697    3.1685   -0.4847 O.2     1  LIG1        0.0000
     16 C16        -0.0173    1.3776    0.0102 C.3     1  LIG1        0.0000
     17 C17         1.1713    2.1003    0.0072 C.3     1  LIG1        0.0000
     18 C18         2.3824    1.4162   -0.0077 C.3     1  LIG1        0.0000
     19 C19         2.3953    0.0257   -0.0205 C.3     1  LIG1        0.0000
     20 C20         3.6615   -0.6793   -0.0364 C.2     1  LIG1        0.0000
     21 O21         4.6274   -0.1896    0.4806 O.2     1  LIG1        0.0000
     22 C22         3.7612   -1.9763   -0.6769 C.2     1  LIG1        0.0000
     23 C23         2.9922   -2.4358   -1.7639 C.2     1  LIG1        0.0000
     24 C24         1.8950   -1.6814   -2.4981 C.3     1  LIG1        0.0000
     25 N25         3.3960   -3.6499   -2.0288 N.2     1  LIG1        0.0000
     26 N26         4.3584   -4.0089   -1.2122 N.pl3   1  LIG1        0.0000
     27 C27         5.0353   -5.2346   -1.2282 C.3     1  LIG1        0.0000
     28 C28         4.3280   -6.4085   -1.4662 C.3     1  LIG1        0.0000
     29 C29         5.0083   -7.6216   -1.4795 C.3     1  LIG1        0.0000
     30 C30         6.3816   -7.6522   -1.2566 C.3     1  LIG1        0.0000
     31 C31         7.0810   -6.4733   -1.0197 C.3     1  LIG1        0.0000
     32 C32         6.4080   -5.2557   -1.0040 C.3     1  LIG1        0.0000
     33 C33         4.6042   -2.9925   -0.3371 C.2     1  LIG1        0.0000
     34 O34         5.5167   -3.0010    0.6536 O.2     1  LIG1       -1.0000
     35 C35         1.2016   -0.6895   -0.0163 C.3     1  LIG1        0.0000
     36 C36        -0.0137   -0.0137   -0.0015 C.3     1  LIG1        0.0000
     37 H          -0.3874    0.4271    2.0757 H       1  LIG1        0.0000
     38 H          -1.2744    0.2916    3.4401 H       1  LIG1        0.0000
     39 H          -1.1964   -0.9563    2.3897 H       1  LIG1        0.0000
     40 H          -5.9747   -1.1877    1.5735 H       1  LIG1        0.0000
     41 H          -8.3687   -1.2894    1.5861 H       1  LIG1        0.0000
     42 H          -9.6496    0.6920    1.2114 H       1  LIG1        0.0000
     43 H          -8.5533    2.7784    0.8237 H       1  LIG1        0.0000
     44 H          -6.1593    2.8882    0.8074 H       1  LIG1        0.0000
     45 H           1.1552    3.1001    0.0158 H       1  LIG1        0.0000
     46 H           3.2436    1.9244   -0.0092 H       1  LIG1        0.0000
     47 H           1.7870   -0.7731   -2.0939 H       1  LIG1        0.0000
     48 H           2.1417   -1.5897   -3.4629 H       1  LIG1        0.0000
     49 H           1.0347   -2.1852   -2.4205 H       1  LIG1        0.0000
     50 H           3.3412   -6.3805   -1.6260 H       1  LIG1        0.0000
     51 H           4.5104   -8.4720   -1.6493 H       1  LIG1        0.0000
     52 H           6.8680   -8.5259   -1.2668 H       1  LIG1        0.0000
     53 H           8.0678   -6.5010   -0.8605 H       1  LIG1        0.0000
     54 H           6.9056   -4.4052   -0.8335 H       1  LIG1        0.0000
     55 H           1.2177   -1.6893   -0.0240 H       1  LIG1        0.0000
     56 H          -0.8750   -0.5218    0.0008 H       1  LIG1        0.0000
@<TRIPOS>UNITY_ATOM_ATTR
12 1
charge -1
34 1
charge -1
@<TRIPOS>BOND
     1     1     2    1
     2     2     3    2
     3     3     4    1
     4     4     5    1
     5     5     6   ar
     6     6     7   ar
     7     7     8   ar
     8     8     9   ar
     9     9    10   ar
    10    10     5   ar
    11     4    11    1
    12    11    12    1
    13    11    13    2
    14    13     2    1
    15    13    14    1
    16    14    15    2
    17    14    16    1
    18    16    17   ar
    19    17    18   ar
    20    18    19   ar
    21    19    20    1
    22    20    21    2
    23    20    22    1
    24    22    23    1
    25    23    24    1
    26    23    25    2
    27    25    26    1
    28    26    27    1
    29    27    28   ar
    30    28    29   ar
    31    29    30   ar
    32    30    31   ar
    33    31    32   ar
    34    32    27   ar
    35    26    33    1
    36    33    22    2
    37    33    34    1
    38    19    35   ar
    39    35    36   ar
    40    36    16   ar
    41     1    37    1
    42     1    38    1
    43     1    39    1
    44     6    40    1
    45     7    41    1
    46     8    42    1
    47     9    43    1
    48    10    44    1
    49    17    45    1
    50    18    46    1
    51    24    47    1
    52    24    48    1
    53    24    49    1
    54    28    50    1
    55    29    51    1
    56    30    52    1
    57    31    53    1
    58    32    54    1
    59    35    55    1
    60    36    56    1
