@<TRIPOS>MOLECULE
*****
 56 60 0 0 0
SMALL
USER_CHARGES

@<TRIPOS>ATOM
      1 C1         -4.3053    2.5171    0.9524 C.3     1  LIG1        0.0000
      2 C2         -3.7913    1.6757   -0.2052 C.2     1  LIG1        0.0000
      3 N3         -4.5255    0.9725   -1.0261 N.2     1  LIG1        0.0000
      4 N4         -3.7765    0.3619   -1.9138 N.pl3   1  LIG1        0.0000
      5 C5         -4.2357   -0.4555   -2.9538 C.3     1  LIG1        0.0000
      6 C6         -5.2870   -1.3368   -2.7237 C.3     1  LIG1        0.0000
      7 C7         -5.7362   -2.1455   -3.7624 C.3     1  LIG1        0.0000
      8 C8         -5.1355   -2.0678   -5.0152 C.3     1  LIG1        0.0000
      9 C9         -4.0848   -1.1833   -5.2364 C.3     1  LIG1        0.0000
     10 C10        -3.6290   -0.3713   -4.2028 C.3     1  LIG1        0.0000
     11 C11        -2.4668    0.6512   -1.6681 C.2     1  LIG1        0.0000
     12 O12        -1.4086    0.1953   -2.3657 O.2     1  LIG1       -1.0000
     13 C13        -2.4507    1.4965   -0.5985 C.2     1  LIG1        0.0000
     14 C14        -1.2821    2.0859    0.0254 C.2     1  LIG1        0.0000
     15 O15        -1.3619    3.1600    0.5545 O.2     1  LIG1        0.0000
     16 C16        -0.0173    1.3776    0.0102 C.3     1  LIG1        0.0000
     17 C17         1.1713    2.1003    0.0072 C.3     1  LIG1        0.0000
     18 C18         2.3824    1.4162   -0.0077 C.3     1  LIG1        0.0000
     19 C19         2.3953    0.0257   -0.0205 C.3     1  LIG1        0.0000
     20 C20         3.6615   -0.6793   -0.0364 C.2     1  LIG1        0.0000
     21 O21         4.6197   -0.1801   -0.5585 O.2     1  LIG1        0.0000
     22 C22         3.7705   -1.9878    0.5787 C.2     1  LIG1        0.0000
     23 C23         3.0393   -2.4563    1.6878 C.2     1  LIG1        0.0000
     24 C24         1.9853   -1.6995    2.4805 C.3     1  LIG1        0.0000
     25 N25         3.4407   -3.6781    1.9190 N.2     1  LIG1        0.0000
     26 N26         4.3605   -4.0372    1.0548 N.pl3   1  LIG1        0.0000
     27 C27         4.9921   -5.2857    0.9979 C.3     1  LIG1        0.0000
     28 C28         5.3565   -5.9271    2.1771 C.3     1  LIG1        0.0000
     29 C29         5.9840   -7.1667    2.1111 C.3     1  LIG1        0.0000
     30 C30         6.2408   -7.7522    0.8751 C.3     1  LIG1        0.0000
     31 C31         5.8726   -7.1037   -0.2992 C.3     1  LIG1        0.0000
     32 C32         5.2451   -5.8632   -0.2421 C.3     1  LIG1        0.0000
     33 C33         4.6082   -2.9975    0.2080 C.2     1  LIG1        0.0000
     34 O34         5.4986   -2.9914   -0.8026 O.2     1  LIG1       -1.0000
     35 C35         1.2016   -0.6895   -0.0163 C.3     1  LIG1        0.0000
     36 C36        -0.0137   -0.0137   -0.0015 C.3     1  LIG1        0.0000
     37 H          -3.5337    2.9504    1.4180 H       1  LIG1        0.0000
     38 H          -4.9228    3.2222    0.6036 H       1  LIG1        0.0000
     39 H          -4.7976    1.9321    1.5969 H       1  LIG1        0.0000
     40 H          -5.7152   -1.3883   -1.8215 H       1  LIG1        0.0000
     41 H          -6.4911   -2.7831   -3.6088 H       1  LIG1        0.0000
     42 H          -5.4606   -2.6505   -5.7600 H       1  LIG1        0.0000
     43 H          -3.6570   -1.1312   -6.1388 H       1  LIG1        0.0000
     44 H          -2.8735    0.2658   -4.3559 H       1  LIG1        0.0000
     45 H           1.1552    3.1001    0.0158 H       1  LIG1        0.0000
     46 H           3.2436    1.9244   -0.0092 H       1  LIG1        0.0000
     47 H           1.8694   -0.7850    2.0928 H       1  LIG1        0.0000
     48 H           1.1166   -2.1929    2.4360 H       1  LIG1        0.0000
     49 H           2.2766   -1.6228    3.4341 H       1  LIG1        0.0000
     50 H           5.1693   -5.5018    3.0626 H       1  LIG1        0.0000
     51 H           6.2508   -7.6372    2.9522 H       1  LIG1        0.0000
     52 H           6.6921   -8.6435    0.8309 H       1  LIG1        0.0000
     53 H           6.0591   -7.5292   -1.1847 H       1  LIG1        0.0000
     54 H           4.9789   -5.3921   -1.0830 H       1  LIG1        0.0000
     55 H           1.2177   -1.6893   -0.0240 H       1  LIG1        0.0000
     56 H          -0.8750   -0.5218    0.0008 H       1  LIG1        0.0000
@<TRIPOS>UNITY_ATOM_ATTR
12 1
charge -1
34 1
charge -1
@<TRIPOS>BOND
     1     1     2    1
     2     2     3    2
     3     3     4    1
     4     4     5    1
     5     5     6   ar
     6     6     7   ar
     7     7     8   ar
     8     8     9   ar
     9     9    10   ar
    10    10     5   ar
    11     4    11    1
    12    11    12    1
    13    11    13    2
    14    13     2    1
    15    13    14    1
    16    14    15    2
    17    14    16    1
    18    16    17   ar
    19    17    18   ar
    20    18    19   ar
    21    19    20    1
    22    20    21    2
    23    20    22    1
    24    22    23    1
    25    23    24    1
    26    23    25    2
    27    25    26    1
    28    26    27    1
    29    27    28   ar
    30    28    29   ar
    31    29    30   ar
    32    30    31   ar
    33    31    32   ar
    34    32    27   ar
    35    26    33    1
    36    33    22    2
    37    33    34    1
    38    19    35   ar
    39    35    36   ar
    40    36    16   ar
    41     1    37    1
    42     1    38    1
    43     1    39    1
    44     6    40    1
    45     7    41    1
    46     8    42    1
    47     9    43    1
    48    10    44    1
    49    17    45    1
    50    18    46    1
    51    24    47    1
    52    24    48    1
    53    24    49    1
    54    28    50    1
    55    29    51    1
    56    30    52    1
    57    31    53    1
    58    32    54    1
    59    35    55    1
    60    36    56    1
