@<TRIPOS>MOLECULE
*****
 56 60 0 0 0
SMALL
USER_CHARGES

@<TRIPOS>ATOM
      1 C1         -3.2863    4.4059    0.9121 C.3     1  LIG1        0.0000
      2 C2         -2.2642    4.4302   -0.2135 C.2     1  LIG1        0.0000
      3 N3         -2.0393    5.4316   -1.0222 N.2     1  LIG1        0.0000
      4 N4         -1.0939    5.1325   -1.8817 N.pl3   1  LIG1        0.0000
      5 C5         -0.5879    5.9801   -2.8748 C.3     1  LIG1        0.0000
      6 C6         -1.4562    6.8006   -3.5875 C.3     1  LIG1        0.0000
      7 C7         -0.9449    7.6388   -4.5727 C.3     1  LIG1        0.0000
      8 C8          0.4214    7.6510   -4.8363 C.3     1  LIG1        0.0000
      9 C9          1.2825    6.8273   -4.1185 C.3     1  LIG1        0.0000
     10 C10         0.7792    5.9854   -3.1318 C.3     1  LIG1        0.0000
     11 C11        -0.6719    3.8559   -1.6553 C.2     1  LIG1        0.0000
     12 O12         0.2794    3.1996   -2.3471 O.2     1  LIG1       -1.0000
     13 C13        -1.3879    3.3940   -0.5910 C.2     1  LIG1        0.0000
     14 C14        -1.2821    2.0859    0.0254 C.2     1  LIG1        0.0000
     15 O15        -2.2415    1.5896    0.5482 O.2     1  LIG1        0.0000
     16 C16        -0.0173    1.3776    0.0102 C.3     1  LIG1        0.0000
     17 C17         1.1713    2.1003    0.0072 C.3     1  LIG1        0.0000
     18 C18         2.3824    1.4162   -0.0077 C.3     1  LIG1        0.0000
     19 C19         2.3953    0.0257   -0.0205 C.3     1  LIG1        0.0000
     20 C20         3.6615   -0.6793   -0.0364 C.2     1  LIG1        0.0000
     21 O21         4.6274   -0.1896    0.4806 O.2     1  LIG1        0.0000
     22 C22         3.7612   -1.9763   -0.6769 C.2     1  LIG1        0.0000
     23 C23         4.6454   -3.0166   -0.3304 C.2     1  LIG1        0.0000
     24 C24         5.6841   -3.0091    0.7801 C.3     1  LIG1        0.0000
     25 N25         4.4109   -4.0044   -1.1530 N.2     1  LIG1        0.0000
     26 N26         3.4521   -3.6930   -1.9930 N.pl3   1  LIG1        0.0000
     27 C27         2.9334   -4.5246   -2.9931 C.3     1  LIG1        0.0000
     28 C28         3.7928   -5.3303   -3.7327 C.3     1  LIG1        0.0000
     29 C29         3.2689   -6.1527   -4.7246 C.3     1  LIG1        0.0000
     30 C30         1.8989   -6.1639   -4.9681 C.3     1  LIG1        0.0000
     31 C31         1.0467   -5.3550   -4.2234 C.3     1  LIG1        0.0000
     32 C32         1.5626   -4.5290   -3.2298 C.3     1  LIG1        0.0000
     33 C33         3.0305   -2.4215   -1.7383 C.2     1  LIG1        0.0000
     34 O34         2.0674   -1.7559   -2.4044 O.2     1  LIG1       -1.0000
     35 C35         1.2016   -0.6895   -0.0163 C.3     1  LIG1        0.0000
     36 C36        -0.0137   -0.0137   -0.0015 C.3     1  LIG1        0.0000
     37 H          -3.2522    3.5197    1.3742 H       1  LIG1        0.0000
     38 H          -3.0778    5.1318    1.5675 H       1  LIG1        0.0000
     39 H          -4.2011    4.5501    0.5348 H       1  LIG1        0.0000
     40 H          -2.4371    6.7879   -3.3937 H       1  LIG1        0.0000
     41 H          -1.5594    8.2329   -5.0917 H       1  LIG1        0.0000
     42 H           0.7861    8.2547   -5.5452 H       1  LIG1        0.0000
     43 H           2.2635    6.8403   -4.3117 H       1  LIG1        0.0000
     44 H           1.3934    5.3906   -2.6132 H       1  LIG1        0.0000
     45 H           1.1552    3.1001    0.0158 H       1  LIG1        0.0000
     46 H           3.2436    1.9244   -0.0092 H       1  LIG1        0.0000
     47 H           5.6548   -2.1311    1.2579 H       1  LIG1        0.0000
     48 H           5.4871   -3.7468    1.4258 H       1  LIG1        0.0000
     49 H           6.5935   -3.1443    0.3868 H       1  LIG1        0.0000
     50 H           4.7765   -5.3185   -3.5532 H       1  LIG1        0.0000
     51 H           3.8770   -6.7362   -5.2629 H       1  LIG1        0.0000
     52 H           1.5251   -6.7562   -5.6818 H       1  LIG1        0.0000
     53 H           0.0629   -5.3672   -4.4022 H       1  LIG1        0.0000
     54 H           0.9548   -3.9449   -2.6919 H       1  LIG1        0.0000
     55 H           1.2177   -1.6893   -0.0240 H       1  LIG1        0.0000
     56 H          -0.8750   -0.5218    0.0008 H       1  LIG1        0.0000
@<TRIPOS>UNITY_ATOM_ATTR
12 1
charge -1
34 1
charge -1
@<TRIPOS>BOND
     1     1     2    1
     2     2     3    2
     3     3     4    1
     4     4     5    1
     5     5     6   ar
     6     6     7   ar
     7     7     8   ar
     8     8     9   ar
     9     9    10   ar
    10    10     5   ar
    11     4    11    1
    12    11    12    1
    13    11    13    2
    14    13     2    1
    15    13    14    1
    16    14    15    2
    17    14    16    1
    18    16    17   ar
    19    17    18   ar
    20    18    19   ar
    21    19    20    1
    22    20    21    2
    23    20    22    1
    24    22    23    1
    25    23    24    1
    26    23    25    2
    27    25    26    1
    28    26    27    1
    29    27    28   ar
    30    28    29   ar
    31    29    30   ar
    32    30    31   ar
    33    31    32   ar
    34    32    27   ar
    35    26    33    1
    36    33    22    2
    37    33    34    1
    38    19    35   ar
    39    35    36   ar
    40    36    16   ar
    41     1    37    1
    42     1    38    1
    43     1    39    1
    44     6    40    1
    45     7    41    1
    46     8    42    1
    47     9    43    1
    48    10    44    1
    49    17    45    1
    50    18    46    1
    51    24    47    1
    52    24    48    1
    53    24    49    1
    54    28    50    1
    55    29    51    1
    56    30    52    1
    57    31    53    1
    58    32    54    1
    59    35    55    1
    60    36    56    1
