@<TRIPOS>MOLECULE
*****
 56 60 0 0 0
SMALL
USER_CHARGES

@<TRIPOS>ATOM
      1 C1         -1.2190    0.0399    2.4739 C.3     1  LIG1        0.0000
      2 C2         -2.4337    0.5833    1.7382 C.2     1  LIG1        0.0000
      3 N3         -3.6803    0.2885    1.9959 N.2     1  LIG1        0.0000
      4 N4         -4.4874    0.9250    1.1801 N.pl3   1  LIG1        0.0000
      5 C5         -5.8860    0.8583    1.1897 C.3     1  LIG1        0.0000
      6 C6         -6.5659    0.8387    2.4031 C.3     1  LIG1        0.0000
      7 C7         -7.9551    0.7716    2.4032 C.3     1  LIG1        0.0000
      8 C8         -8.6501    0.7252    1.1985 C.3     1  LIG1        0.0000
      9 C9         -7.9620    0.7455   -0.0103 C.3     1  LIG1        0.0000
     10 C10        -6.5724    0.8118   -0.0193 C.3     1  LIG1        0.0000
     11 C11        -3.7472    1.6732    0.3131 C.2     1  LIG1        0.0000
     12 O12        -4.2289    2.4523   -0.6745 O.2     1  LIG1       -1.0000
     13 C13        -2.4413    1.4862    0.6571 C.2     1  LIG1        0.0000
     14 C14        -1.2821    2.0859    0.0254 C.2     1  LIG1        0.0000
     15 O15        -1.3697    3.1685   -0.4847 O.2     1  LIG1        0.0000
     16 C16        -0.0173    1.3776    0.0102 C.3     1  LIG1        0.0000
     17 C17         1.1713    2.1003    0.0072 C.3     1  LIG1        0.0000
     18 C18         2.3824    1.4162   -0.0077 C.3     1  LIG1        0.0000
     19 C19         2.3953    0.0257   -0.0205 C.3     1  LIG1        0.0000
     20 C20         3.6615   -0.6793   -0.0364 C.2     1  LIG1        0.0000
     21 O21         4.6274   -0.1896    0.4806 O.2     1  LIG1        0.0000
     22 C22         3.7612   -1.9763   -0.6769 C.2     1  LIG1        0.0000
     23 C23         4.6454   -3.0166   -0.3304 C.2     1  LIG1        0.0000
     24 C24         5.6841   -3.0091    0.7801 C.3     1  LIG1        0.0000
     25 N25         4.4109   -4.0044   -1.1530 N.2     1  LIG1        0.0000
     26 N26         3.4521   -3.6930   -1.9930 N.pl3   1  LIG1        0.0000
     27 C27         2.9334   -4.5246   -2.9931 C.3     1  LIG1        0.0000
     28 C28         1.5572   -4.6966   -3.0999 C.3     1  LIG1        0.0000
     29 C29         1.0507   -5.5251   -4.0958 C.3     1  LIG1        0.0000
     30 C30         1.9177   -6.1710   -4.9719 C.3     1  LIG1        0.0000
     31 C31         3.2926   -5.9929   -4.8579 C.3     1  LIG1        0.0000
     32 C32         3.8075   -5.1665   -3.8642 C.3     1  LIG1        0.0000
     33 C33         3.0305   -2.4215   -1.7383 C.2     1  LIG1        0.0000
     34 O34         2.0674   -1.7559   -2.4044 O.2     1  LIG1       -1.0000
     35 C35         1.2016   -0.6895   -0.0163 C.3     1  LIG1        0.0000
     36 C36        -0.0137   -0.0137   -0.0015 C.3     1  LIG1        0.0000
     37 H          -0.3874    0.4271    2.0757 H       1  LIG1        0.0000
     38 H          -1.2744    0.2916    3.4401 H       1  LIG1        0.0000
     39 H          -1.1964   -0.9563    2.3897 H       1  LIG1        0.0000
     40 H          -6.0613    0.8725    3.2659 H       1  LIG1        0.0000
     41 H          -8.4548    0.7566    3.2693 H       1  LIG1        0.0000
     42 H          -9.6489    0.6770    1.2018 H       1  LIG1        0.0000
     43 H          -8.4664    0.7124   -0.8732 H       1  LIG1        0.0000
     44 H          -6.0725    0.8260   -0.8853 H       1  LIG1        0.0000
     45 H           1.1552    3.1001    0.0158 H       1  LIG1        0.0000
     46 H           3.2436    1.9244   -0.0092 H       1  LIG1        0.0000
     47 H           5.6548   -2.1311    1.2579 H       1  LIG1        0.0000
     48 H           5.4871   -3.7468    1.4258 H       1  LIG1        0.0000
     49 H           6.5935   -3.1443    0.3868 H       1  LIG1        0.0000
     50 H           0.9388   -4.2298   -2.4677 H       1  LIG1        0.0000
     51 H           0.0632   -5.6566   -4.1822 H       1  LIG1        0.0000
     52 H           1.5506   -6.7660   -5.6870 H       1  LIG1        0.0000
     53 H           3.9111   -6.4591   -5.4905 H       1  LIG1        0.0000
     54 H           4.7951   -5.0354   -3.7771 H       1  LIG1        0.0000
     55 H           1.2177   -1.6893   -0.0240 H       1  LIG1        0.0000
     56 H          -0.8750   -0.5218    0.0008 H       1  LIG1        0.0000
@<TRIPOS>UNITY_ATOM_ATTR
12 1
charge -1
34 1
charge -1
@<TRIPOS>BOND
     1     1     2    1
     2     2     3    2
     3     3     4    1
     4     4     5    1
     5     5     6   ar
     6     6     7   ar
     7     7     8   ar
     8     8     9   ar
     9     9    10   ar
    10    10     5   ar
    11     4    11    1
    12    11    12    1
    13    11    13    2
    14    13     2    1
    15    13    14    1
    16    14    15    2
    17    14    16    1
    18    16    17   ar
    19    17    18   ar
    20    18    19   ar
    21    19    20    1
    22    20    21    2
    23    20    22    1
    24    22    23    1
    25    23    24    1
    26    23    25    2
    27    25    26    1
    28    26    27    1
    29    27    28   ar
    30    28    29   ar
    31    29    30   ar
    32    30    31   ar
    33    31    32   ar
    34    32    27   ar
    35    26    33    1
    36    33    22    2
    37    33    34    1
    38    19    35   ar
    39    35    36   ar
    40    36    16   ar
    41     1    37    1
    42     1    38    1
    43     1    39    1
    44     6    40    1
    45     7    41    1
    46     8    42    1
    47     9    43    1
    48    10    44    1
    49    17    45    1
    50    18    46    1
    51    24    47    1
    52    24    48    1
    53    24    49    1
    54    28    50    1
    55    29    51    1
    56    30    52    1
    57    31    53    1
    58    32    54    1
    59    35    55    1
    60    36    56    1
