@<TRIPOS>MOLECULE

  21   23
SMALL
USER_CHARGES
@<TRIPOS>ATOM
   1 C1          -2.2440    -2.8586     0.0490 C.2          1    LIG   0.0000
   2 C2          -0.9693    -2.2330     0.0663 C.2          1    LIG   0.0000
   3 C3          -0.9989    -0.8735     0.0221 C.2          1    LIG   0.0000
   4 C4           0.1192     0.0540     0.0255 C.2          1    LIG   0.0000
   5 C5          -0.1790     1.3794    -0.0181 C.2          1    LIG   0.0000
   6 S6           1.3496     2.1252    -0.0070 S.3          1    LIG   0.0000
   7 C7           2.2973     0.7149     0.0687 C.2          1    LIG   0.0000
   8 N8           1.4507    -0.2759     0.0710 N.2          1    LIG   1.0000
   9 C9           2.2981    -1.4704     0.1346 C.3          1    LIG   0.0000
  10 C10          3.6672    -0.9965    -0.2998 C.3          1    LIG   0.0000
  11 N11          3.6471     0.3919     0.1402 N.pl3        1    LIG   0.0000
  12 S12         -2.6610    -0.5007    -0.0306 S.3          1    LIG   0.0000
  13 N13         -3.2663    -2.0395    -0.0027 N.2          1    LIG   0.0000
  14 H           -2.3539    -3.8523     0.0743 H            1    LIG   0.0000
  15 H           -0.1155    -2.7519     0.1079 H            1    LIG   0.0000
  16 H           -1.0801     1.8119    -0.0493 H            1    LIG   0.0000
  17 H            1.9572    -2.1776    -0.4848 H            1    LIG   0.0000
  18 H            2.3296    -1.8308     1.0669 H            1    LIG   0.0000
  19 H            4.3935    -1.5130     0.1537 H            1    LIG   0.0000
  20 H            3.7794    -1.0639    -1.2912 H            1    LIG   0.0000
  21 H            4.4134     0.9687     0.4232 H            1    LIG   0.0000
@<TRIPOS>BOND
   1        1        2 1
   2        2        3 2
   3        3        4 1
   4        4        5 2
   5        5        6 1
   6        6        7 1
   7        7        8 2
   8        8        4 1
   9        8        9 1
  10        9       10 1
  11       10       11 1
  12       11        7 1
  13        3       12 1
  14       12       13 1
  15       13        1 2
  16        1       14 1
  17        2       15 1
  18        5       16 1
  19        9       17 1
  20        9       18 1
  21       10       19 1
  22       10       20 1
  23       11       21 1

@<TRIPOS>MOLECULE

  21   23
SMALL
USER_CHARGES
@<TRIPOS>ATOM
   1 C1          -2.3675    -2.7114     0.5127 C.2          1    LIG   0.0000
   2 C2          -1.1486    -2.0193     0.7403 C.2          1    LIG   0.0000
   3 C3          -0.9989    -0.8735     0.0221 C.2          1    LIG   0.0000
   4 C4           0.1192     0.0540     0.0255 C.2          1    LIG   0.0000
   5 C5          -0.1790     1.3794    -0.0181 C.2          1    LIG   0.0000
   6 S6           1.3496     2.1252    -0.0070 S.3          1    LIG   0.0000
   7 C7           2.2973     0.7149     0.0687 C.2          1    LIG   0.0000
   8 N8           1.4507    -0.2759     0.0710 N.2          1    LIG   1.0000
   9 C9           2.2981    -1.4704     0.1346 C.3          1    LIG   0.0000
  10 C10          3.6672    -0.9965    -0.2998 C.3          1    LIG   0.0000
  11 N11          3.6471     0.3919     0.1402 N.pl3        1    LIG   0.0000
  12 S12         -2.4375    -0.7670    -0.8853 S.3          1    LIG   0.0000
  13 N13         -3.1758    -2.1474    -0.3518 N.2          1    LIG   0.0000
  14 H           -2.5930    -3.5673     0.9781 H            1    LIG   0.0000
  15 H           -0.4537    -2.3488     1.3794 H            1    LIG   0.0000
  16 H           -1.0801     1.8119    -0.0493 H            1    LIG   0.0000
  17 H            1.9572    -2.1776    -0.4848 H            1    LIG   0.0000
  18 H            2.3296    -1.8308     1.0669 H            1    LIG   0.0000
  19 H            4.3935    -1.5130     0.1537 H            1    LIG   0.0000
  20 H            3.7794    -1.0639    -1.2912 H            1    LIG   0.0000
  21 H            4.4134     0.9687     0.4232 H            1    LIG   0.0000
@<TRIPOS>BOND
   1        1        2 1
   2        2        3 2
   3        3        4 1
   4        4        5 2
   5        5        6 1
   6        6        7 1
   7        7        8 2
   8        8        4 1
   9        8        9 1
  10        9       10 1
  11       10       11 1
  12       11        7 1
  13        3       12 1
  14       12       13 1
  15       13        1 2
  16        1       14 1
  17        2       15 1
  18        5       16 1
  19        9       17 1
  20        9       18 1
  21       10       19 1
  22       10       20 1
  23       11       21 1

@<TRIPOS>MOLECULE

  21   23
SMALL
USER_CHARGES
@<TRIPOS>ATOM
   1 C1          -2.3394    -2.7418    -0.4298 C.2          1    LIG   0.0000
   2 C2          -1.1082    -2.0630    -0.6293 C.2          1    LIG   0.0000
   3 C3          -0.9989    -0.8735     0.0221 C.2          1    LIG   0.0000
   4 C4           0.1192     0.0540     0.0255 C.2          1    LIG   0.0000
   5 C5          -0.1790     1.3794    -0.0181 C.2          1    LIG   0.0000
   6 S6           1.3496     2.1252    -0.0070 S.3          1    LIG   0.0000
   7 C7           2.2973     0.7149     0.0687 C.2          1    LIG   0.0000
   8 N8           1.4507    -0.2759     0.0710 N.2          1    LIG   1.0000
   9 C9           2.2981    -1.4704     0.1346 C.3          1    LIG   0.0000
  10 C10          3.6672    -0.9965    -0.2998 C.3          1    LIG   0.0000
  11 N11          3.6471     0.3919     0.1402 N.pl3        1    LIG   0.0000
  12 S12         -2.4818    -0.7199     0.8476 S.3          1    LIG   0.0000
  13 N13         -3.1926    -2.1298     0.3553 N.2          1    LIG   0.0000
  14 H           -2.5412    -3.6230    -0.8573 H            1    LIG   0.0000
  15 H           -0.3776    -2.4311    -1.2043 H            1    LIG   0.0000
  16 H           -1.0801     1.8119    -0.0493 H            1    LIG   0.0000
  17 H            1.9572    -2.1776    -0.4848 H            1    LIG   0.0000
  18 H            2.3296    -1.8308     1.0669 H            1    LIG   0.0000
  19 H            4.3935    -1.5130     0.1537 H            1    LIG   0.0000
  20 H            3.7794    -1.0639    -1.2912 H            1    LIG   0.0000
  21 H            4.4134     0.9687     0.4232 H            1    LIG   0.0000
@<TRIPOS>BOND
   1        1        2 1
   2        2        3 2
   3        3        4 1
   4        4        5 2
   5        5        6 1
   6        6        7 1
   7        7        8 2
   8        8        4 1
   9        8        9 1
  10        9       10 1
  11       10       11 1
  12       11        7 1
  13        3       12 1
  14       12       13 1
  15       13        1 2
  16        1       14 1
  17        2       15 1
  18        5       16 1
  19        9       17 1
  20        9       18 1
  21       10       19 1
  22       10       20 1
  23       11       21 1

@<TRIPOS>MOLECULE

  21   23
SMALL
USER_CHARGES
@<TRIPOS>ATOM
   1 C1          -3.1799    -1.7300    -0.0153 C.2          1    LIG   0.0000
   2 C2          -2.3294    -0.5929    -0.0262 C.2          1    LIG   0.0000
   3 C3          -0.9989    -0.8735     0.0221 C.2          1    LIG   0.0000
   4 C4           0.1192     0.0540     0.0255 C.2          1    LIG   0.0000
   5 C5          -0.1790     1.3794    -0.0181 C.2          1    LIG   0.0000
   6 S6           1.3496     2.1252    -0.0070 S.3          1    LIG   0.0000
   7 C7           2.2973     0.7149     0.0687 C.2          1    LIG   0.0000
   8 N8           1.4507    -0.2759     0.0710 N.2          1    LIG   1.0000
   9 C9           2.2981    -1.4704     0.1346 C.3          1    LIG   0.0000
  10 C10          3.6672    -0.9965    -0.2998 C.3          1    LIG   0.0000
  11 N11          3.6471     0.3919     0.1402 N.pl3        1    LIG   0.0000
  12 S12         -0.9400    -2.5759     0.0698 S.3          1    LIG   0.0000
  13 N13         -2.5640    -2.8863     0.0351 N.2          1    LIG   0.0000
  14 H           -4.1766    -1.6543    -0.0440 H            1    LIG   0.0000
  15 H           -2.6814     0.3422    -0.0662 H            1    LIG   0.0000
  16 H           -1.0801     1.8119    -0.0493 H            1    LIG   0.0000
  17 H            1.9572    -2.1776    -0.4848 H            1    LIG   0.0000
  18 H            2.3296    -1.8308     1.0669 H            1    LIG   0.0000
  19 H            4.3935    -1.5130     0.1537 H            1    LIG   0.0000
  20 H            3.7794    -1.0639    -1.2912 H            1    LIG   0.0000
  21 H            4.4134     0.9687     0.4232 H            1    LIG   0.0000
@<TRIPOS>BOND
   1        1        2 1
   2        2        3 2
   3        3        4 1
   4        4        5 2
   5        5        6 1
   6        6        7 1
   7        7        8 2
   8        8        4 1
   9        8        9 1
  10        9       10 1
  11       10       11 1
  12       11        7 1
  13        3       12 1
  14       12       13 1
  15       13        1 2
  16        1       14 1
  17        2       15 1
  18        5       16 1
  19        9       17 1
  20        9       18 1
  21       10       19 1
  22       10       20 1
  23       11       21 1

@<TRIPOS>MOLECULE

  21   23
SMALL
USER_CHARGES
@<TRIPOS>ATOM
   1 C1          -3.0564    -1.8772    -0.4790 C.2          1    LIG   0.0000
   2 C2          -2.1501    -0.8066    -0.7001 C.2          1    LIG   0.0000
   3 C3          -0.9989    -0.8735     0.0221 C.2          1    LIG   0.0000
   4 C4           0.1192     0.0540     0.0255 C.2          1    LIG   0.0000
   5 C5          -0.1790     1.3794    -0.0181 C.2          1    LIG   0.0000
   6 S6           1.3496     2.1252    -0.0070 S.3          1    LIG   0.0000
   7 C7           2.2973     0.7149     0.0687 C.2          1    LIG   0.0000
   8 N8           1.4507    -0.2759     0.0710 N.2          1    LIG   1.0000
   9 C9           2.2981    -1.4704     0.1346 C.3          1    LIG   0.0000
  10 C10          3.6672    -0.9965    -0.2998 C.3          1    LIG   0.0000
  11 N11          3.6471     0.3919     0.1402 N.pl3        1    LIG   0.0000
  12 S12         -1.1635    -2.3096     0.9246 S.3          1    LIG   0.0000
  13 N13         -2.6546    -2.7785     0.3842 N.2          1    LIG   0.0000
  14 H           -3.9375    -1.9393    -0.9479 H            1    LIG   0.0000
  15 H           -2.3431    -0.0608    -1.3377 H            1    LIG   0.0000
  16 H           -1.0801     1.8119    -0.0493 H            1    LIG   0.0000
  17 H            1.9572    -2.1776    -0.4848 H            1    LIG   0.0000
  18 H            2.3296    -1.8308     1.0669 H            1    LIG   0.0000
  19 H            4.3935    -1.5130     0.1537 H            1    LIG   0.0000
  20 H            3.7794    -1.0639    -1.2912 H            1    LIG   0.0000
  21 H            4.4134     0.9687     0.4232 H            1    LIG   0.0000
@<TRIPOS>BOND
   1        1        2 1
   2        2        3 2
   3        3        4 1
   4        4        5 2
   5        5        6 1
   6        6        7 1
   7        7        8 2
   8        8        4 1
   9        8        9 1
  10        9       10 1
  11       10       11 1
  12       11        7 1
  13        3       12 1
  14       12       13 1
  15       13        1 2
  16        1       14 1
  17        2       15 1
  18        5       16 1
  19        9       17 1
  20        9       18 1
  21       10       19 1
  22       10       20 1
  23       11       21 1

@<TRIPOS>MOLECULE

  21   23
SMALL
USER_CHARGES
@<TRIPOS>ATOM
   1 C1          -3.0845    -1.8469     0.4634 C.2          1    LIG   0.0000
   2 C2          -2.1906    -0.7629     0.6694 C.2          1    LIG   0.0000
   3 C3          -0.9989    -0.8735     0.0221 C.2          1    LIG   0.0000
   4 C4           0.1192     0.0540     0.0255 C.2          1    LIG   0.0000
   5 C5          -0.1790     1.3794    -0.0181 C.2          1    LIG   0.0000
   6 S6           1.3496     2.1252    -0.0070 S.3          1    LIG   0.0000
   7 C7           2.2973     0.7149     0.0687 C.2          1    LIG   0.0000
   8 N8           1.4507    -0.2759     0.0710 N.2          1    LIG   1.0000
   9 C9           2.2981    -1.4704     0.1346 C.3          1    LIG   0.0000
  10 C10          3.6672    -0.9965    -0.2998 C.3          1    LIG   0.0000
  11 N11          3.6471     0.3919     0.1402 N.pl3        1    LIG   0.0000
  12 S12         -1.1191    -2.3567    -0.8084 S.3          1    LIG   0.0000
  13 N13         -2.6378    -2.7961    -0.3229 N.2          1    LIG   0.0000
  14 H           -3.9893    -1.8835     0.8876 H            1    LIG   0.0000
  15 H           -2.4193     0.0214     1.2460 H            1    LIG   0.0000
  16 H           -1.0801     1.8119    -0.0493 H            1    LIG   0.0000
  17 H            1.9572    -2.1776    -0.4848 H            1    LIG   0.0000
  18 H            2.3296    -1.8308     1.0669 H            1    LIG   0.0000
  19 H            4.3935    -1.5130     0.1537 H            1    LIG   0.0000
  20 H            3.7794    -1.0639    -1.2912 H            1    LIG   0.0000
  21 H            4.4134     0.9687     0.4232 H            1    LIG   0.0000
@<TRIPOS>BOND
   1        1        2 1
   2        2        3 2
   3        3        4 1
   4        4        5 2
   5        5        6 1
   6        6        7 1
   7        7        8 2
   8        8        4 1
   9        8        9 1
  10        9       10 1
  11       10       11 1
  12       11        7 1
  13        3       12 1
  14       12       13 1
  15       13        1 2
  16        1       14 1
  17        2       15 1
  18        5       16 1
  19        9       17 1
  20        9       18 1
  21       10       19 1
  22       10       20 1
  23       11       21 1

@<TRIPOS>MOLECULE

  21   23
SMALL
USER_CHARGES
@<TRIPOS>ATOM
   1 C1          -2.2965    -2.8449     0.0263 C.2          1    LIG   0.0000
   2 C2          -1.0143    -2.2349     0.0094 C.2          1    LIG   0.0000
   3 C3          -1.0280    -0.8744     0.0238 C.2          1    LIG   0.0000
   4 C4           0.1012     0.0395     0.0131 C.2          1    LIG   0.0000
   5 C5          -0.1497     1.3757     0.0388 C.2          1    LIG   0.0000
   6 S6           1.3838     2.1175    -0.0000 S.3          1    LIG   0.0000
   7 C7           2.2791     0.6739    -0.0717 C.2          1    LIG   0.0000
   8 N8           1.4276    -0.3002    -0.0302 N.2          1    LIG   1.0000
   9 C9           2.3083    -1.4706    -0.0660 C.3          1    LIG   0.0000
  10 C10          3.6555    -0.9604     0.3871 C.3          1    LIG   0.0000
  11 N11          3.6435     0.3887    -0.1573 N.pl3        1    LIG   0.0000
  12 S12         -2.6856    -0.4812     0.0658 S.3          1    LIG   0.0000
  13 N13         -3.3092    -2.0129     0.0577 N.2          1    LIG   0.0000
  14 H           -2.4182    -3.8374     0.0150 H            1    LIG   0.0000
  15 H           -0.1663    -2.7645    -0.0114 H            1    LIG   0.0000
  16 H           -1.0420     1.8259     0.0731 H            1    LIG   0.0000
  17 H            2.3660    -1.8388    -0.9940 H            1    LIG   0.0000
  18 H            1.9747    -2.1806     0.5542 H            1    LIG   0.0000
  19 H            3.7281    -0.9526     1.3845 H            1    LIG   0.0000
  20 H            4.4017    -1.5041     0.0029 H            1    LIG   0.0000
  21 H            4.3974     0.9515    -0.4962 H            1    LIG   0.0000
@<TRIPOS>BOND
   1        1        2 1
   2        2        3 2
   3        3        4 1
   4        4        5 2
   5        5        6 1
   6        6        7 1
   7        7        8 2
   8        8        4 1
   9        8        9 1
  10        9       10 1
  11       10       11 1
  12       11        7 1
  13        3       12 1
  14       12       13 1
  15       13        1 2
  16        1       14 1
  17        2       15 1
  18        5       16 1
  19        9       17 1
  20        9       18 1
  21       10       19 1
  22       10       20 1
  23       11       21 1

@<TRIPOS>MOLECULE

  21   23
SMALL
USER_CHARGES
@<TRIPOS>ATOM
   1 C1          -2.3961    -2.7162     0.5011 C.2          1    LIG   0.0000
   2 C2          -1.1589    -2.0481     0.6995 C.2          1    LIG   0.0000
   3 C3          -1.0280    -0.8744     0.0238 C.2          1    LIG   0.0000
   4 C4           0.1012     0.0395     0.0131 C.2          1    LIG   0.0000
   5 C5          -0.1497     1.3757     0.0388 C.2          1    LIG   0.0000
   6 S6           1.3838     2.1175    -0.0000 S.3          1    LIG   0.0000
   7 C7           2.2791     0.6739    -0.0717 C.2          1    LIG   0.0000
   8 N8           1.4276    -0.3002    -0.0302 N.2          1    LIG   1.0000
   9 C9           2.3083    -1.4706    -0.0660 C.3          1    LIG   0.0000
  10 C10          3.6555    -0.9604     0.3871 C.3          1    LIG   0.0000
  11 N11          3.6435     0.3887    -0.1573 N.pl3        1    LIG   0.0000
  12 S12         -2.5060    -0.7133    -0.8090 S.3          1    LIG   0.0000
  13 N13         -3.2366    -2.1068    -0.2995 N.2          1    LIG   0.0000
  14 H           -2.6108    -3.5885     0.9404 H            1    LIG   0.0000
  15 H           -0.4391    -2.4122     1.2905 H            1    LIG   0.0000
  16 H           -1.0420     1.8259     0.0731 H            1    LIG   0.0000
  17 H            2.3660    -1.8388    -0.9940 H            1    LIG   0.0000
  18 H            1.9747    -2.1806     0.5542 H            1    LIG   0.0000
  19 H            3.7281    -0.9526     1.3845 H            1    LIG   0.0000
  20 H            4.4017    -1.5041     0.0029 H            1    LIG   0.0000
  21 H            4.3974     0.9515    -0.4962 H            1    LIG   0.0000
@<TRIPOS>BOND
   1        1        2 1
   2        2        3 2
   3        3        4 1
   4        4        5 2
   5        5        6 1
   6        6        7 1
   7        7        8 2
   8        8        4 1
   9        8        9 1
  10        9       10 1
  11       10       11 1
  12       11        7 1
  13        3       12 1
  14       12       13 1
  15       13        1 2
  16        1       14 1
  17        2       15 1
  18        5       16 1
  19        9       17 1
  20        9       18 1
  21       10       19 1
  22       10       20 1
  23       11       21 1

@<TRIPOS>MOLECULE

  21   23
SMALL
USER_CHARGES
@<TRIPOS>ATOM
   1 C1          -2.4127    -2.7067    -0.4420 C.2          1    LIG   0.0000
   2 C2          -1.1834    -2.0339    -0.6711 C.2          1    LIG   0.0000
   3 C3          -1.0280    -0.8744     0.0238 C.2          1    LIG   0.0000
   4 C4           0.1012     0.0395     0.0131 C.2          1    LIG   0.0000
   5 C5          -0.1497     1.3757     0.0388 C.2          1    LIG   0.0000
   6 S6           1.3838     2.1175    -0.0000 S.3          1    LIG   0.0000
   7 C7           2.2791     0.6739    -0.0717 C.2          1    LIG   0.0000
   8 N8           1.4276    -0.3002    -0.0302 N.2          1    LIG   1.0000
   9 C9           2.3083    -1.4706    -0.0660 C.3          1    LIG   0.0000
  10 C10          3.6555    -0.9604     0.3871 C.3          1    LIG   0.0000
  11 N11          3.6435     0.3887    -0.1573 N.pl3        1    LIG   0.0000
  12 S12         -2.4683    -0.7396     0.9245 S.3          1    LIG   0.0000
  13 N13         -3.2199    -2.1191     0.4077 N.2          1    LIG   0.0000
  14 H           -2.6459    -3.5666    -0.8961 H            1    LIG   0.0000
  15 H           -0.4855    -2.3852    -1.2951 H            1    LIG   0.0000
  16 H           -1.0420     1.8259     0.0731 H            1    LIG   0.0000
  17 H            2.3660    -1.8388    -0.9940 H            1    LIG   0.0000
  18 H            1.9747    -2.1806     0.5542 H            1    LIG   0.0000
  19 H            3.7281    -0.9526     1.3845 H            1    LIG   0.0000
  20 H            4.4017    -1.5041     0.0029 H            1    LIG   0.0000
  21 H            4.3974     0.9515    -0.4962 H            1    LIG   0.0000
@<TRIPOS>BOND
   1        1        2 1
   2        2        3 2
   3        3        4 1
   4        4        5 2
   5        5        6 1
   6        6        7 1
   7        7        8 2
   8        8        4 1
   9        8        9 1
  10        9       10 1
  11       10       11 1
  12       11        7 1
  13        3       12 1
  14       12       13 1
  15       13        1 2
  16        1       14 1
  17        2       15 1
  18        5       16 1
  19        9       17 1
  20        9       18 1
  21       10       19 1
  22       10       20 1
  23       11       21 1

@<TRIPOS>MOLECULE

  21   23
SMALL
USER_CHARGES
@<TRIPOS>ATOM
   1 C1          -3.2194    -1.7041     0.0540 C.2          1    LIG   0.0000
   2 C2          -2.3555    -0.5772     0.0506 C.2          1    LIG   0.0000
   3 C3          -1.0280    -0.8744     0.0238 C.2          1    LIG   0.0000
   4 C4           0.1012     0.0395     0.0131 C.2          1    LIG   0.0000
   5 C5          -0.1497     1.3757     0.0388 C.2          1    LIG   0.0000
   6 S6           1.3838     2.1175    -0.0000 S.3          1    LIG   0.0000
   7 C7           2.2791     0.6739    -0.0717 C.2          1    LIG   0.0000
   8 N8           1.4276    -0.3002    -0.0302 N.2          1    LIG   1.0000
   9 C9           2.3083    -1.4706    -0.0660 C.3          1    LIG   0.0000
  10 C10          3.6555    -0.9604     0.3871 C.3          1    LIG   0.0000
  11 N11          3.6435     0.3887    -0.1573 N.pl3        1    LIG   0.0000
  12 S12         -0.9893    -2.5779    -0.0029 S.3          1    LIG   0.0000
  13 N13         -2.6172    -2.8683     0.0265 N.2          1    LIG   0.0000
  14 H           -4.2153    -1.6161     0.0759 H            1    LIG   0.0000
  15 H           -2.6965     0.3627     0.0666 H            1    LIG   0.0000
  16 H           -1.0420     1.8259     0.0731 H            1    LIG   0.0000
  17 H            2.3660    -1.8388    -0.9940 H            1    LIG   0.0000
  18 H            1.9747    -2.1806     0.5542 H            1    LIG   0.0000
  19 H            3.7281    -0.9526     1.3845 H            1    LIG   0.0000
  20 H            4.4017    -1.5041     0.0029 H            1    LIG   0.0000
  21 H            4.3974     0.9515    -0.4962 H            1    LIG   0.0000
@<TRIPOS>BOND
   1        1        2 1
   2        2        3 2
   3        3        4 1
   4        4        5 2
   5        5        6 1
   6        6        7 1
   7        7        8 2
   8        8        4 1
   9        8        9 1
  10        9       10 1
  11       10       11 1
  12       11        7 1
  13        3       12 1
  14       12       13 1
  15       13        1 2
  16        1       14 1
  17        2       15 1
  18        5       16 1
  19        9       17 1
  20        9       18 1
  21       10       19 1
  22       10       20 1
  23       11       21 1

@<TRIPOS>MOLECULE

  21   23
SMALL
USER_CHARGES
@<TRIPOS>ATOM
   1 C1          -3.1198    -1.8328    -0.4208 C.2          1    LIG   0.0000
   2 C2          -2.2108    -0.7640    -0.6395 C.2          1    LIG   0.0000
   3 C3          -1.0280    -0.8744     0.0238 C.2          1    LIG   0.0000
   4 C4           0.1012     0.0395     0.0131 C.2          1    LIG   0.0000
   5 C5          -0.1497     1.3757     0.0388 C.2          1    LIG   0.0000
   6 S6           1.3838     2.1175    -0.0000 S.3          1    LIG   0.0000
   7 C7           2.2791     0.6739    -0.0717 C.2          1    LIG   0.0000
   8 N8           1.4276    -0.3002    -0.0302 N.2          1    LIG   1.0000
   9 C9           2.3083    -1.4706    -0.0660 C.3          1    LIG   0.0000
  10 C10          3.6555    -0.9604     0.3871 C.3          1    LIG   0.0000
  11 N11          3.6435     0.3887    -0.1573 N.pl3        1    LIG   0.0000
  12 S12         -1.1689    -2.3458     0.8719 S.3          1    LIG   0.0000
  13 N13         -2.6898    -2.7745     0.3838 N.2          1    LIG   0.0000
  14 H           -4.0226    -1.8650    -0.8495 H            1    LIG   0.0000
  15 H           -2.4237     0.0104    -1.2353 H            1    LIG   0.0000
  16 H           -1.0420     1.8259     0.0731 H            1    LIG   0.0000
  17 H            2.3660    -1.8388    -0.9940 H            1    LIG   0.0000
  18 H            1.9747    -2.1806     0.5542 H            1    LIG   0.0000
  19 H            3.7281    -0.9526     1.3845 H            1    LIG   0.0000
  20 H            4.4017    -1.5041     0.0029 H            1    LIG   0.0000
  21 H            4.3974     0.9515    -0.4962 H            1    LIG   0.0000
@<TRIPOS>BOND
   1        1        2 1
   2        2        3 2
   3        3        4 1
   4        4        5 2
   5        5        6 1
   6        6        7 1
   7        7        8 2
   8        8        4 1
   9        8        9 1
  10        9       10 1
  11       10       11 1
  12       11        7 1
  13        3       12 1
  14       12       13 1
  15       13        1 2
  16        1       14 1
  17        2       15 1
  18        5       16 1
  19        9       17 1
  20        9       18 1
  21       10       19 1
  22       10       20 1
  23       11       21 1

@<TRIPOS>MOLECULE

  21   23
SMALL
USER_CHARGES
@<TRIPOS>ATOM
   1 C1          -3.1032    -1.8423     0.5224 C.2          1    LIG   0.0000
   2 C2          -2.1863    -0.7782     0.7311 C.2          1    LIG   0.0000
   3 C3          -1.0280    -0.8744     0.0238 C.2          1    LIG   0.0000
   4 C4           0.1012     0.0395     0.0131 C.2          1    LIG   0.0000
   5 C5          -0.1497     1.3757     0.0388 C.2          1    LIG   0.0000
   6 S6           1.3838     2.1175    -0.0000 S.3          1    LIG   0.0000
   7 C7           2.2791     0.6739    -0.0717 C.2          1    LIG   0.0000
   8 N8           1.4276    -0.3002    -0.0302 N.2          1    LIG   1.0000
   9 C9           2.3083    -1.4706    -0.0660 C.3          1    LIG   0.0000
  10 C10          3.6555    -0.9604     0.3871 C.3          1    LIG   0.0000
  11 N11          3.6435     0.3887    -0.1573 N.pl3        1    LIG   0.0000
  12 S12         -1.2066    -2.3195    -0.8616 S.3          1    LIG   0.0000
  13 N13         -2.7065    -2.7621    -0.3235 N.2          1    LIG   0.0000
  14 H           -3.9875    -1.8869     0.9871 H            1    LIG   0.0000
  15 H           -2.3774    -0.0166     1.3503 H            1    LIG   0.0000
  16 H           -1.0420     1.8259     0.0731 H            1    LIG   0.0000
  17 H            2.3660    -1.8388    -0.9940 H            1    LIG   0.0000
  18 H            1.9747    -2.1806     0.5542 H            1    LIG   0.0000
  19 H            3.7281    -0.9526     1.3845 H            1    LIG   0.0000
  20 H            4.4017    -1.5041     0.0029 H            1    LIG   0.0000
  21 H            4.3974     0.9515    -0.4962 H            1    LIG   0.0000
@<TRIPOS>BOND
   1        1        2 1
   2        2        3 2
   3        3        4 1
   4        4        5 2
   5        5        6 1
   6        6        7 1
   7        7        8 2
   8        8        4 1
   9        8        9 1
  10        9       10 1
  11       10       11 1
  12       11        7 1
  13        3       12 1
  14       12       13 1
  15       13        1 2
  16        1       14 1
  17        2       15 1
  18        5       16 1
  19        9       17 1
  20        9       18 1
  21       10       19 1
  22       10       20 1
  23       11       21 1

