@<TRIPOS>MOLECULE
*****
 21 23 0 0 0
SMALL
USER_CHARGES

@<TRIPOS>ATOM
      1 C1         -2.2965   -2.8449    0.0263 C.2     1  LIG1        0.0000
      2 C2         -1.0143   -2.2349    0.0094 C.2     1  LIG1        0.0000
      3 C3         -1.0280   -0.8744    0.0238 C.2     1  LIG1        0.0000
      4 C4          0.1012    0.0395    0.0131 C.2     1  LIG1        0.0000
      5 C5         -0.1497    1.3757    0.0388 C.2     1  LIG1        0.0000
      6 S6          1.3838    2.1175   -0.0000 S.3     1  LIG1        0.0000
      7 C7          2.2791    0.6739   -0.0717 C.2     1  LIG1        0.0000
      8 N8          1.4276   -0.3002   -0.0302 N.2     1  LIG1        1.0000
      9 C9          2.3083   -1.4706   -0.0660 C.3     1  LIG1        0.0000
     10 C10         3.6555   -0.9604    0.3871 C.3     1  LIG1        0.0000
     11 N11         3.6435    0.3887   -0.1573 N.pl3   1  LIG1        0.0000
     12 S12        -2.6856   -0.4812    0.0658 S.3     1  LIG1        0.0000
     13 N13        -3.3092   -2.0129    0.0577 N.2     1  LIG1        0.0000
     14 H          -2.4182   -3.8374    0.0150 H       1  LIG1        0.0000
     15 H          -0.1663   -2.7645   -0.0114 H       1  LIG1        0.0000
     16 H          -1.0420    1.8259    0.0731 H       1  LIG1        0.0000
     17 H           2.3660   -1.8388   -0.9940 H       1  LIG1        0.0000
     18 H           1.9747   -2.1806    0.5542 H       1  LIG1        0.0000
     19 H           3.7281   -0.9526    1.3845 H       1  LIG1        0.0000
     20 H           4.4017   -1.5041    0.0029 H       1  LIG1        0.0000
     21 H           4.3974    0.9515   -0.4962 H       1  LIG1        0.0000
@<TRIPOS>BOND
     1     1     2    1
     2     2     3    2
     3     3     4    1
     4     4     5    2
     5     5     6    1
     6     6     7    1
     7     7     8    2
     8     8     4    1
     9     8     9    1
    10     9    10    1
    11    10    11    1
    12    11     7    1
    13     3    12    1
    14    12    13    1
    15    13     1    2
    16     1    14    1
    17     2    15    1
    18     5    16    1
    19     9    17    1
    20     9    18    1
    21    10    19    1
    22    10    20    1
    23    11    21    1
