@<TRIPOS>MOLECULE
*****
 21 23 0 0 0
SMALL
USER_CHARGES

@<TRIPOS>ATOM
      1 C1         -2.3675   -2.7114    0.5127 C.2     1  LIG1        0.0000
      2 C2         -1.1486   -2.0193    0.7403 C.2     1  LIG1        0.0000
      3 C3         -0.9989   -0.8735    0.0221 C.2     1  LIG1        0.0000
      4 C4          0.1192    0.0540    0.0255 C.2     1  LIG1        0.0000
      5 C5         -0.1790    1.3794   -0.0181 C.2     1  LIG1        0.0000
      6 S6          1.3496    2.1252   -0.0070 S.3     1  LIG1        0.0000
      7 C7          2.2973    0.7149    0.0687 C.2     1  LIG1        0.0000
      8 N8          1.4507   -0.2759    0.0710 N.2     1  LIG1        1.0000
      9 C9          2.2981   -1.4704    0.1346 C.3     1  LIG1        0.0000
     10 C10         3.6672   -0.9965   -0.2998 C.3     1  LIG1        0.0000
     11 N11         3.6471    0.3919    0.1402 N.pl3   1  LIG1        0.0000
     12 S12        -2.4375   -0.7670   -0.8853 S.3     1  LIG1        0.0000
     13 N13        -3.1758   -2.1474   -0.3518 N.2     1  LIG1        0.0000
     14 H          -2.5930   -3.5673    0.9781 H       1  LIG1        0.0000
     15 H          -0.4537   -2.3488    1.3794 H       1  LIG1        0.0000
     16 H          -1.0801    1.8119   -0.0493 H       1  LIG1        0.0000
     17 H           1.9572   -2.1776   -0.4848 H       1  LIG1        0.0000
     18 H           2.3296   -1.8308    1.0669 H       1  LIG1        0.0000
     19 H           4.3935   -1.5130    0.1537 H       1  LIG1        0.0000
     20 H           3.7794   -1.0639   -1.2912 H       1  LIG1        0.0000
     21 H           4.4134    0.9687    0.4232 H       1  LIG1        0.0000
@<TRIPOS>BOND
     1     1     2    1
     2     2     3    2
     3     3     4    1
     4     4     5    2
     5     5     6    1
     6     6     7    1
     7     7     8    2
     8     8     4    1
     9     8     9    1
    10     9    10    1
    11    10    11    1
    12    11     7    1
    13     3    12    1
    14    12    13    1
    15    13     1    2
    16     1    14    1
    17     2    15    1
    18     5    16    1
    19     9    17    1
    20     9    18    1
    21    10    19    1
    22    10    20    1
    23    11    21    1
