@<TRIPOS>MOLECULE

  48   52
SMALL
USER_CHARGES
@<TRIPOS>ATOM
   1 C1           6.0883    -6.6754     0.3063 C.3          1    LIG   0.0000
   2 C2           5.0902    -6.2075    -0.7391 C.ar         1    LIG   0.0000
   3 C3           5.0143    -6.8510    -1.9716 C.ar         1    LIG   0.0000
   4 C4           4.0964    -6.4222    -2.9249 C.ar         1    LIG   0.0000
   5 C5           3.2641    -5.3470    -2.6306 C.ar         1    LIG   0.0000
   6 C6           3.3555    -4.6959    -1.4023 C.ar         1    LIG   0.0000
   7 C7           4.2601    -5.1283    -0.4594 C.ar         1    LIG   0.0000
   8 C8           4.0569    -4.1929     0.7226 C.3          1    LIG   0.0000
   9 C9           2.6253    -3.7262     0.6005 C.3          1    LIG   0.0000
  10 C10          2.2123    -2.3546     1.0935 C.2          1    LIG   0.0000
  11 O11          2.1299    -1.9877     2.2636 O.2          1    LIG   0.0000
  12 N12          1.8957    -1.6287    -0.0570 N.am         1    LIG   0.0000
  13 C13          1.3819    -0.3266    -0.0290 C.2          1    LIG   0.0000
  14 C14          0.0685     0.0226    -0.0052 C.2          1    LIG   0.0000
  15 C15          0.0397     1.4349     0.0154 C.2          1    LIG   0.0000
  16 C16         -1.1415     2.2705     0.0392 C.2          1    LIG   0.0000
  17 C17         -1.1291     3.6299     0.0597 C.2          1    LIG   0.0000
  18 C18         -2.4882     4.0149     0.0849 C.2          1    LIG   0.0000
  19 C19         -3.2186     2.8651     0.0760 C.2          1    LIG   0.0000
  20 O20         -2.3861     1.8462     0.0456 O.2          1    LIG   0.0000
  21 N21          1.2840     1.8431     0.0082 N.2          1    LIG   0.0000
  22 N22          2.1065     0.8240    -0.0206 N.pl3        1    LIG   0.0000
  23 C23          3.5759     0.9034    -0.0435 C.3          1    LIG   0.0000
  24 C24          4.0230     1.6648    -1.2808 C.3          1    LIG   0.0000
  25 C25          4.0637     1.6275     1.2008 C.3          1    LIG   0.0000
  26 C26          2.1739    -2.3553    -1.1969 C.2          1    LIG   0.0000
  27 O27          2.0067    -1.9701    -2.3365 O.2          1    LIG   0.0000
  28 N28          2.6968    -3.6017    -0.8449 N.am         1    LIG   0.0000
  29 H            1.9774    -4.4340     0.8820 H            1    LIG   0.0000
  30 H            6.6035    -7.4548    -0.0500 H            1    LIG   0.0000
  31 H            6.7187    -5.9298     0.5225 H            1    LIG   0.0000
  32 H            5.5996    -6.9494     1.1346 H            1    LIG   0.0000
  33 H            5.6197    -7.6215    -2.1715 H            1    LIG   0.0000
  34 H            4.0355    -6.8813    -3.8112 H            1    LIG   0.0000
  35 H            2.5945    -5.0388    -3.3064 H            1    LIG   0.0000
  36 H            4.6863    -3.4175     0.6709 H            1    LIG   0.0000
  37 H            4.1971    -4.6790     1.5852 H            1    LIG   0.0000
  38 H           -0.7179    -0.5950    -0.0028 H            1    LIG   0.0000
  39 H           -0.3288     4.2294     0.0574 H            1    LIG   0.0000
  40 H           -2.8445     4.9491     0.1052 H            1    LIG   0.0000
  41 H           -4.2167     2.8054     0.0902 H            1    LIG   0.0000
  42 H            3.9594    -0.0200    -0.0637 H            1    LIG   0.0000
  43 H            5.0214     1.7187    -1.2963 H            1    LIG   0.0000
  44 H            3.7021     1.1884    -2.0994 H            1    LIG   0.0000
  45 H            3.6396     2.5881    -1.2606 H            1    LIG   0.0000
  46 H            5.0621     1.6814     1.1852 H            1    LIG   0.0000
  47 H            3.6803     2.5508     1.2209 H            1    LIG   0.0000
  48 H            3.7695     1.1266     2.0148 H            1    LIG   0.0000
@<TRIPOS>BOND
   1        1        2 1
   2        2        3 ar
   3        3        4 ar
   4        4        5 ar
   5        5        6 ar
   6        6        7 ar
   7        7        2 ar
   8        7        8 1
   9        8        9 1
  10        9       10 1
  11       10       11 2
  12       10       12 am
  13       12       13 1
  14       13       14 2
  15       14       15 1
  16       15       16 1
  17       16       17 2
  18       17       18 1
  19       18       19 2
  20       19       20 1
  21       20       16 1
  22       15       21 2
  23       21       22 1
  24       22       13 1
  25       22       23 1
  26       23       24 1
  27       23       25 1
  28       12       26 am
  29       26       27 2
  30       26       28 am
  31       28        6 1
  32       28        9 1
  33        9       29 1
  34        1       30 1
  35        1       31 1
  36        1       32 1
  37        3       33 1
  38        4       34 1
  39        5       35 1
  40        8       36 1
  41        8       37 1
  42       14       38 1
  43       17       39 1
  44       18       40 1
  45       19       41 1
  46       23       42 1
  47       24       43 1
  48       24       44 1
  49       24       45 1
  50       25       46 1
  51       25       47 1
  52       25       48 1

@<TRIPOS>MOLECULE

  48   52
SMALL
USER_CHARGES
@<TRIPOS>ATOM
   1 C1           6.0883    -6.6754     0.3063 C.3          1    LIG   0.0000
   2 C2           5.0902    -6.2075    -0.7391 C.ar         1    LIG   0.0000
   3 C3           5.0143    -6.8510    -1.9716 C.ar         1    LIG   0.0000
   4 C4           4.0964    -6.4222    -2.9249 C.ar         1    LIG   0.0000
   5 C5           3.2641    -5.3470    -2.6306 C.ar         1    LIG   0.0000
   6 C6           3.3555    -4.6959    -1.4023 C.ar         1    LIG   0.0000
   7 C7           4.2601    -5.1283    -0.4594 C.ar         1    LIG   0.0000
   8 C8           4.0569    -4.1929     0.7226 C.3          1    LIG   0.0000
   9 C9           2.6253    -3.7262     0.6005 C.3          1    LIG   0.0000
  10 C10          2.2123    -2.3546     1.0935 C.2          1    LIG   0.0000
  11 O11          2.1299    -1.9877     2.2636 O.2          1    LIG   0.0000
  12 N12          1.8957    -1.6287    -0.0570 N.am         1    LIG   0.0000
  13 C13          1.3819    -0.3266    -0.0290 C.2          1    LIG   0.0000
  14 C14          0.0685     0.0226    -0.0052 C.2          1    LIG   0.0000
  15 C15          0.0397     1.4349     0.0154 C.2          1    LIG   0.0000
  16 C16         -1.1415     2.2705     0.0392 C.2          1    LIG   0.0000
  17 C17         -2.4194     1.8065     0.0443 C.2          1    LIG   0.0000
  18 C18         -3.2350     2.9600     0.0630 C.2          1    LIG   0.0000
  19 C19         -2.3937     4.0314     0.0696 C.2          1    LIG   0.0000
  20 O20         -1.1555     3.5854     0.0583 O.2          1    LIG   0.0000
  21 N21          1.2840     1.8431     0.0082 N.2          1    LIG   0.0000
  22 N22          2.1065     0.8240    -0.0206 N.pl3        1    LIG   0.0000
  23 C23          3.5759     0.9034    -0.0435 C.3          1    LIG   0.0000
  24 C24          4.0230     1.6648    -1.2808 C.3          1    LIG   0.0000
  25 C25          4.0637     1.6275     1.2008 C.3          1    LIG   0.0000
  26 C26          2.1739    -2.3553    -1.1969 C.2          1    LIG   0.0000
  27 O27          2.0067    -1.9701    -2.3365 O.2          1    LIG   0.0000
  28 N28          2.6968    -3.6017    -0.8449 N.am         1    LIG   0.0000
  29 H            1.9774    -4.4340     0.8820 H            1    LIG   0.0000
  30 H            6.6035    -7.4548    -0.0500 H            1    LIG   0.0000
  31 H            6.7187    -5.9298     0.5225 H            1    LIG   0.0000
  32 H            5.5996    -6.9494     1.1346 H            1    LIG   0.0000
  33 H            5.6197    -7.6215    -2.1715 H            1    LIG   0.0000
  34 H            4.0355    -6.8813    -3.8112 H            1    LIG   0.0000
  35 H            2.5945    -5.0388    -3.3064 H            1    LIG   0.0000
  36 H            4.6863    -3.4175     0.6709 H            1    LIG   0.0000
  37 H            4.1971    -4.6790     1.5852 H            1    LIG   0.0000
  38 H           -0.7179    -0.5950    -0.0028 H            1    LIG   0.0000
  39 H           -2.7183     0.8523     0.0364 H            1    LIG   0.0000
  40 H           -4.2347     2.9850     0.0700 H            1    LIG   0.0000
  41 H           -2.6697     4.9924     0.0811 H            1    LIG   0.0000
  42 H            3.9594    -0.0200    -0.0637 H            1    LIG   0.0000
  43 H            5.0214     1.7187    -1.2963 H            1    LIG   0.0000
  44 H            3.7021     1.1884    -2.0994 H            1    LIG   0.0000
  45 H            3.6396     2.5881    -1.2606 H            1    LIG   0.0000
  46 H            5.0621     1.6814     1.1852 H            1    LIG   0.0000
  47 H            3.6803     2.5508     1.2209 H            1    LIG   0.0000
  48 H            3.7695     1.1266     2.0148 H            1    LIG   0.0000
@<TRIPOS>BOND
   1        1        2 1
   2        2        3 ar
   3        3        4 ar
   4        4        5 ar
   5        5        6 ar
   6        6        7 ar
   7        7        2 ar
   8        7        8 1
   9        8        9 1
  10        9       10 1
  11       10       11 2
  12       10       12 am
  13       12       13 1
  14       13       14 2
  15       14       15 1
  16       15       16 1
  17       16       17 2
  18       17       18 1
  19       18       19 2
  20       19       20 1
  21       20       16 1
  22       15       21 2
  23       21       22 1
  24       22       13 1
  25       22       23 1
  26       23       24 1
  27       23       25 1
  28       12       26 am
  29       26       27 2
  30       26       28 am
  31       28        6 1
  32       28        9 1
  33        9       29 1
  34        1       30 1
  35        1       31 1
  36        1       32 1
  37        3       33 1
  38        4       34 1
  39        5       35 1
  40        8       36 1
  41        8       37 1
  42       14       38 1
  43       17       39 1
  44       18       40 1
  45       19       41 1
  46       23       42 1
  47       24       43 1
  48       24       44 1
  49       24       45 1
  50       25       46 1
  51       25       47 1
  52       25       48 1

@<TRIPOS>MOLECULE

  48   52
SMALL
USER_CHARGES
@<TRIPOS>ATOM
   1 C1           6.0883    -6.6754     0.3063 C.3          1    LIG   0.0000
   2 C2           5.0902    -6.2075    -0.7391 C.ar         1    LIG   0.0000
   3 C3           5.0143    -6.8510    -1.9716 C.ar         1    LIG   0.0000
   4 C4           4.0964    -6.4222    -2.9249 C.ar         1    LIG   0.0000
   5 C5           3.2641    -5.3470    -2.6306 C.ar         1    LIG   0.0000
   6 C6           3.3555    -4.6959    -1.4023 C.ar         1    LIG   0.0000
   7 C7           4.2601    -5.1283    -0.4594 C.ar         1    LIG   0.0000
   8 C8           4.0569    -4.1929     0.7226 C.3          1    LIG   0.0000
   9 C9           2.6253    -3.7262     0.6005 C.3          1    LIG   0.0000
  10 C10          2.2123    -2.3546     1.0935 C.2          1    LIG   0.0000
  11 O11          2.1299    -1.9877     2.2636 O.2          1    LIG   0.0000
  12 N12          1.8957    -1.6287    -0.0570 N.am         1    LIG   0.0000
  13 C13          1.3819    -0.3266    -0.0290 C.2          1    LIG   0.0000
  14 C14          0.0685     0.0226    -0.0052 C.2          1    LIG   0.0000
  15 C15          0.0397     1.4349     0.0154 C.2          1    LIG   0.0000
  16 C16         -1.1415     2.2705     0.0392 C.2          1    LIG   0.0000
  17 C17         -1.1291     3.6299     0.0597 C.2          1    LIG   0.0000
  18 C18         -2.4882     4.0149     0.0849 C.2          1    LIG   0.0000
  19 C19         -3.2186     2.8651     0.0760 C.2          1    LIG   0.0000
  20 O20         -2.3861     1.8462     0.0456 O.2          1    LIG   0.0000
  21 N21          1.2840     1.8431     0.0082 N.2          1    LIG   0.0000
  22 N22          2.1065     0.8240    -0.0206 N.pl3        1    LIG   0.0000
  23 C23          3.5759     0.9034    -0.0435 C.3          1    LIG   0.0000
  24 C24          4.1406     0.1967     1.1780 C.3          1    LIG   0.0000
  25 C25          4.0999     0.2340    -1.3035 C.3          1    LIG   0.0000
  26 C26          2.1739    -2.3553    -1.1969 C.2          1    LIG   0.0000
  27 O27          2.0067    -1.9701    -2.3365 O.2          1    LIG   0.0000
  28 N28          2.6968    -3.6017    -0.8449 N.am         1    LIG   0.0000
  29 H            1.9774    -4.4340     0.8820 H            1    LIG   0.0000
  30 H            6.6035    -7.4548    -0.0500 H            1    LIG   0.0000
  31 H            6.7187    -5.9298     0.5225 H            1    LIG   0.0000
  32 H            5.5996    -6.9494     1.1346 H            1    LIG   0.0000
  33 H            5.6197    -7.6215    -2.1715 H            1    LIG   0.0000
  34 H            4.0355    -6.8813    -3.8112 H            1    LIG   0.0000
  35 H            2.5945    -5.0388    -3.3064 H            1    LIG   0.0000
  36 H            4.6863    -3.4175     0.6709 H            1    LIG   0.0000
  37 H            4.1971    -4.6790     1.5852 H            1    LIG   0.0000
  38 H           -0.7179    -0.5950    -0.0028 H            1    LIG   0.0000
  39 H           -0.3288     4.2294     0.0574 H            1    LIG   0.0000
  40 H           -2.8445     4.9491     0.1052 H            1    LIG   0.0000
  41 H           -4.2167     2.8054     0.0902 H            1    LIG   0.0000
  42 H            3.8581     1.8627    -0.0337 H            1    LIG   0.0000
  43 H            5.1390     0.2506     1.1625 H            1    LIG   0.0000
  44 H            3.7959     0.6371     2.0070 H            1    LIG   0.0000
  45 H            3.8584    -0.7627     1.1682 H            1    LIG   0.0000
  46 H            5.0984     0.2879    -1.3191 H            1    LIG   0.0000
  47 H            3.8178    -0.7253    -1.3133 H            1    LIG   0.0000
  48 H            3.7285     0.6989    -2.1072 H            1    LIG   0.0000
@<TRIPOS>BOND
   1        1        2 1
   2        2        3 ar
   3        3        4 ar
   4        4        5 ar
   5        5        6 ar
   6        6        7 ar
   7        7        2 ar
   8        7        8 1
   9        8        9 1
  10        9       10 1
  11       10       11 2
  12       10       12 am
  13       12       13 1
  14       13       14 2
  15       14       15 1
  16       15       16 1
  17       16       17 2
  18       17       18 1
  19       18       19 2
  20       19       20 1
  21       20       16 1
  22       15       21 2
  23       21       22 1
  24       22       13 1
  25       22       23 1
  26       23       24 1
  27       23       25 1
  28       12       26 am
  29       26       27 2
  30       26       28 am
  31       28        6 1
  32       28        9 1
  33        9       29 1
  34        1       30 1
  35        1       31 1
  36        1       32 1
  37        3       33 1
  38        4       34 1
  39        5       35 1
  40        8       36 1
  41        8       37 1
  42       14       38 1
  43       17       39 1
  44       18       40 1
  45       19       41 1
  46       23       42 1
  47       24       43 1
  48       24       44 1
  49       24       45 1
  50       25       46 1
  51       25       47 1
  52       25       48 1

@<TRIPOS>MOLECULE

  48   52
SMALL
USER_CHARGES
@<TRIPOS>ATOM
   1 C1           6.0883    -6.6754     0.3063 C.3          1    LIG   0.0000
   2 C2           5.0902    -6.2075    -0.7391 C.ar         1    LIG   0.0000
   3 C3           5.0143    -6.8510    -1.9716 C.ar         1    LIG   0.0000
   4 C4           4.0964    -6.4222    -2.9249 C.ar         1    LIG   0.0000
   5 C5           3.2641    -5.3470    -2.6306 C.ar         1    LIG   0.0000
   6 C6           3.3555    -4.6959    -1.4023 C.ar         1    LIG   0.0000
   7 C7           4.2601    -5.1283    -0.4594 C.ar         1    LIG   0.0000
   8 C8           4.0569    -4.1929     0.7226 C.3          1    LIG   0.0000
   9 C9           2.6253    -3.7262     0.6005 C.3          1    LIG   0.0000
  10 C10          2.2123    -2.3546     1.0935 C.2          1    LIG   0.0000
  11 O11          2.1299    -1.9877     2.2636 O.2          1    LIG   0.0000
  12 N12          1.8957    -1.6287    -0.0570 N.am         1    LIG   0.0000
  13 C13          1.3819    -0.3266    -0.0290 C.2          1    LIG   0.0000
  14 C14          0.0685     0.0226    -0.0052 C.2          1    LIG   0.0000
  15 C15          0.0397     1.4349     0.0154 C.2          1    LIG   0.0000
  16 C16         -1.1415     2.2705     0.0392 C.2          1    LIG   0.0000
  17 C17         -2.4194     1.8065     0.0443 C.2          1    LIG   0.0000
  18 C18         -3.2350     2.9600     0.0630 C.2          1    LIG   0.0000
  19 C19         -2.3937     4.0314     0.0696 C.2          1    LIG   0.0000
  20 O20         -1.1555     3.5854     0.0583 O.2          1    LIG   0.0000
  21 N21          1.2840     1.8431     0.0082 N.2          1    LIG   0.0000
  22 N22          2.1065     0.8240    -0.0206 N.pl3        1    LIG   0.0000
  23 C23          3.5759     0.9034    -0.0435 C.3          1    LIG   0.0000
  24 C24          4.1406     0.1967     1.1780 C.3          1    LIG   0.0000
  25 C25          4.0999     0.2340    -1.3035 C.3          1    LIG   0.0000
  26 C26          2.1739    -2.3553    -1.1969 C.2          1    LIG   0.0000
  27 O27          2.0067    -1.9701    -2.3365 O.2          1    LIG   0.0000
  28 N28          2.6968    -3.6017    -0.8449 N.am         1    LIG   0.0000
  29 H            1.9774    -4.4340     0.8820 H            1    LIG   0.0000
  30 H            6.6035    -7.4548    -0.0500 H            1    LIG   0.0000
  31 H            6.7187    -5.9298     0.5225 H            1    LIG   0.0000
  32 H            5.5996    -6.9494     1.1346 H            1    LIG   0.0000
  33 H            5.6197    -7.6215    -2.1715 H            1    LIG   0.0000
  34 H            4.0355    -6.8813    -3.8112 H            1    LIG   0.0000
  35 H            2.5945    -5.0388    -3.3064 H            1    LIG   0.0000
  36 H            4.6863    -3.4175     0.6709 H            1    LIG   0.0000
  37 H            4.1971    -4.6790     1.5852 H            1    LIG   0.0000
  38 H           -0.7179    -0.5950    -0.0028 H            1    LIG   0.0000
  39 H           -2.7183     0.8523     0.0364 H            1    LIG   0.0000
  40 H           -4.2347     2.9850     0.0700 H            1    LIG   0.0000
  41 H           -2.6697     4.9924     0.0811 H            1    LIG   0.0000
  42 H            3.8581     1.8627    -0.0337 H            1    LIG   0.0000
  43 H            5.1390     0.2506     1.1625 H            1    LIG   0.0000
  44 H            3.7959     0.6371     2.0070 H            1    LIG   0.0000
  45 H            3.8584    -0.7627     1.1682 H            1    LIG   0.0000
  46 H            5.0984     0.2879    -1.3191 H            1    LIG   0.0000
  47 H            3.8178    -0.7253    -1.3133 H            1    LIG   0.0000
  48 H            3.7285     0.6989    -2.1072 H            1    LIG   0.0000
@<TRIPOS>BOND
   1        1        2 1
   2        2        3 ar
   3        3        4 ar
   4        4        5 ar
   5        5        6 ar
   6        6        7 ar
   7        7        2 ar
   8        7        8 1
   9        8        9 1
  10        9       10 1
  11       10       11 2
  12       10       12 am
  13       12       13 1
  14       13       14 2
  15       14       15 1
  16       15       16 1
  17       16       17 2
  18       17       18 1
  19       18       19 2
  20       19       20 1
  21       20       16 1
  22       15       21 2
  23       21       22 1
  24       22       13 1
  25       22       23 1
  26       23       24 1
  27       23       25 1
  28       12       26 am
  29       26       27 2
  30       26       28 am
  31       28        6 1
  32       28        9 1
  33        9       29 1
  34        1       30 1
  35        1       31 1
  36        1       32 1
  37        3       33 1
  38        4       34 1
  39        5       35 1
  40        8       36 1
  41        8       37 1
  42       14       38 1
  43       17       39 1
  44       18       40 1
  45       19       41 1
  46       23       42 1
  47       24       43 1
  48       24       44 1
  49       24       45 1
  50       25       46 1
  51       25       47 1
  52       25       48 1

@<TRIPOS>MOLECULE

  48   52
SMALL
USER_CHARGES
@<TRIPOS>ATOM
   1 C1           2.2719    -8.1603    -0.6693 C.3          1    LIG   0.0000
   2 C2           2.6971    -7.1764     0.4074 C.ar         1    LIG   0.0000
   3 C3           3.2099    -7.6402     1.6161 C.ar         1    LIG   0.0000
   4 C4           3.6019    -6.7360     2.5980 C.ar         1    LIG   0.0000
   5 C5           3.4718    -5.3722     2.3562 C.ar         1    LIG   0.0000
   6 C6           2.9425    -4.9137     1.1517 C.ar         1    LIG   0.0000
   7 C7           2.5629    -5.8118     0.1802 C.ar         1    LIG   0.0000
   8 C8           2.0555    -4.9464    -0.9631 C.3          1    LIG   0.0000
   9 C9           2.7847    -3.6331    -0.8027 C.3          1    LIG   0.0000
  10 C10          2.1430    -2.3318    -1.2382 C.2          1    LIG   0.0000
  11 O11          1.9356    -1.9643    -2.3925 O.2          1    LIG   0.0000
  12 N12          1.8957    -1.6287    -0.0570 N.am         1    LIG   0.0000
  13 C13          1.3819    -0.3266    -0.0290 C.2          1    LIG   0.0000
  14 C14          0.0685     0.0226    -0.0052 C.2          1    LIG   0.0000
  15 C15          0.0397     1.4349     0.0154 C.2          1    LIG   0.0000
  16 C16         -1.1415     2.2705     0.0392 C.2          1    LIG   0.0000
  17 C17         -1.1291     3.6299     0.0597 C.2          1    LIG   0.0000
  18 C18         -2.4882     4.0149     0.0849 C.2          1    LIG   0.0000
  19 C19         -3.2186     2.8651     0.0760 C.2          1    LIG   0.0000
  20 O20         -2.3861     1.8462     0.0456 O.2          1    LIG   0.0000
  21 N21          1.2840     1.8431     0.0082 N.2          1    LIG   0.0000
  22 N22          2.1065     0.8240    -0.0206 N.pl3        1    LIG   0.0000
  23 C23          3.5759     0.9034    -0.0435 C.3          1    LIG   0.0000
  24 C24          4.0230     1.6648    -1.2808 C.3          1    LIG   0.0000
  25 C25          4.0637     1.6275     1.2008 C.3          1    LIG   0.0000
  26 C26          2.2051    -2.3913     1.0509 C.2          1    LIG   0.0000
  27 O27          2.0811    -2.0384     2.2063 O.2          1    LIG   0.0000
  28 N28          2.6687    -3.6448     0.6451 N.am         1    LIG   0.0000
  29 H            3.7371    -3.6970    -1.1008 H            1    LIG   0.0000
  30 H            2.4328    -9.0941    -0.3498 H            1    LIG   0.0000
  31 H            1.2992    -8.0385    -0.8668 H            1    LIG   0.0000
  32 H            2.8039    -7.9959    -1.4999 H            1    LIG   0.0000
  33 H            3.2964    -8.6231     1.7783 H            1    LIG   0.0000
  34 H            3.9728    -7.0626     3.4674 H            1    LIG   0.0000
  35 H            3.7605    -4.7154     3.0527 H            1    LIG   0.0000
  36 H            1.0671    -4.8120    -0.8918 H            1    LIG   0.0000
  37 H            2.2722    -5.3647    -1.8451 H            1    LIG   0.0000
  38 H           -0.7179    -0.5950    -0.0028 H            1    LIG   0.0000
  39 H           -0.3288     4.2294     0.0574 H            1    LIG   0.0000
  40 H           -2.8445     4.9491     0.1052 H            1    LIG   0.0000
  41 H           -4.2167     2.8054     0.0902 H            1    LIG   0.0000
  42 H            3.9594    -0.0200    -0.0637 H            1    LIG   0.0000
  43 H            5.0214     1.7187    -1.2963 H            1    LIG   0.0000
  44 H            3.7021     1.1884    -2.0994 H            1    LIG   0.0000
  45 H            3.6396     2.5881    -1.2606 H            1    LIG   0.0000
  46 H            5.0621     1.6814     1.1852 H            1    LIG   0.0000
  47 H            3.6803     2.5508     1.2209 H            1    LIG   0.0000
  48 H            3.7695     1.1266     2.0148 H            1    LIG   0.0000
@<TRIPOS>BOND
   1        1        2 1
   2        2        3 ar
   3        3        4 ar
   4        4        5 ar
   5        5        6 ar
   6        6        7 ar
   7        7        2 ar
   8        7        8 1
   9        8        9 1
  10        9       10 1
  11       10       11 2
  12       10       12 am
  13       12       13 1
  14       13       14 2
  15       14       15 1
  16       15       16 1
  17       16       17 2
  18       17       18 1
  19       18       19 2
  20       19       20 1
  21       20       16 1
  22       15       21 2
  23       21       22 1
  24       22       13 1
  25       22       23 1
  26       23       24 1
  27       23       25 1
  28       12       26 am
  29       26       27 2
  30       26       28 am
  31       28        6 1
  32       28        9 1
  33        9       29 1
  34        1       30 1
  35        1       31 1
  36        1       32 1
  37        3       33 1
  38        4       34 1
  39        5       35 1
  40        8       36 1
  41        8       37 1
  42       14       38 1
  43       17       39 1
  44       18       40 1
  45       19       41 1
  46       23       42 1
  47       24       43 1
  48       24       44 1
  49       24       45 1
  50       25       46 1
  51       25       47 1
  52       25       48 1

@<TRIPOS>MOLECULE

  48   52
SMALL
USER_CHARGES
@<TRIPOS>ATOM
   1 C1           2.2719    -8.1603    -0.6693 C.3          1    LIG   0.0000
   2 C2           2.6971    -7.1764     0.4074 C.ar         1    LIG   0.0000
   3 C3           3.2099    -7.6402     1.6161 C.ar         1    LIG   0.0000
   4 C4           3.6019    -6.7360     2.5980 C.ar         1    LIG   0.0000
   5 C5           3.4718    -5.3722     2.3562 C.ar         1    LIG   0.0000
   6 C6           2.9425    -4.9137     1.1517 C.ar         1    LIG   0.0000
   7 C7           2.5629    -5.8118     0.1802 C.ar         1    LIG   0.0000
   8 C8           2.0555    -4.9464    -0.9631 C.3          1    LIG   0.0000
   9 C9           2.7847    -3.6331    -0.8027 C.3          1    LIG   0.0000
  10 C10          2.1430    -2.3318    -1.2382 C.2          1    LIG   0.0000
  11 O11          1.9356    -1.9643    -2.3925 O.2          1    LIG   0.0000
  12 N12          1.8957    -1.6287    -0.0570 N.am         1    LIG   0.0000
  13 C13          1.3819    -0.3266    -0.0290 C.2          1    LIG   0.0000
  14 C14          0.0685     0.0226    -0.0052 C.2          1    LIG   0.0000
  15 C15          0.0397     1.4349     0.0154 C.2          1    LIG   0.0000
  16 C16         -1.1415     2.2705     0.0392 C.2          1    LIG   0.0000
  17 C17         -2.4194     1.8065     0.0443 C.2          1    LIG   0.0000
  18 C18         -3.2350     2.9600     0.0630 C.2          1    LIG   0.0000
  19 C19         -2.3937     4.0314     0.0696 C.2          1    LIG   0.0000
  20 O20         -1.1555     3.5854     0.0583 O.2          1    LIG   0.0000
  21 N21          1.2840     1.8431     0.0082 N.2          1    LIG   0.0000
  22 N22          2.1065     0.8240    -0.0206 N.pl3        1    LIG   0.0000
  23 C23          3.5759     0.9034    -0.0435 C.3          1    LIG   0.0000
  24 C24          4.0230     1.6648    -1.2808 C.3          1    LIG   0.0000
  25 C25          4.0637     1.6275     1.2008 C.3          1    LIG   0.0000
  26 C26          2.2051    -2.3913     1.0509 C.2          1    LIG   0.0000
  27 O27          2.0811    -2.0384     2.2063 O.2          1    LIG   0.0000
  28 N28          2.6687    -3.6448     0.6451 N.am         1    LIG   0.0000
  29 H            3.7371    -3.6970    -1.1008 H            1    LIG   0.0000
  30 H            2.4328    -9.0941    -0.3498 H            1    LIG   0.0000
  31 H            1.2992    -8.0385    -0.8668 H            1    LIG   0.0000
  32 H            2.8039    -7.9959    -1.4999 H            1    LIG   0.0000
  33 H            3.2964    -8.6231     1.7783 H            1    LIG   0.0000
  34 H            3.9728    -7.0626     3.4674 H            1    LIG   0.0000
  35 H            3.7605    -4.7154     3.0527 H            1    LIG   0.0000
  36 H            1.0671    -4.8120    -0.8918 H            1    LIG   0.0000
  37 H            2.2722    -5.3647    -1.8451 H            1    LIG   0.0000
  38 H           -0.7179    -0.5950    -0.0028 H            1    LIG   0.0000
  39 H           -2.7183     0.8523     0.0364 H            1    LIG   0.0000
  40 H           -4.2347     2.9850     0.0700 H            1    LIG   0.0000
  41 H           -2.6697     4.9924     0.0811 H            1    LIG   0.0000
  42 H            3.9594    -0.0200    -0.0637 H            1    LIG   0.0000
  43 H            5.0214     1.7187    -1.2963 H            1    LIG   0.0000
  44 H            3.7021     1.1884    -2.0994 H            1    LIG   0.0000
  45 H            3.6396     2.5881    -1.2606 H            1    LIG   0.0000
  46 H            5.0621     1.6814     1.1852 H            1    LIG   0.0000
  47 H            3.6803     2.5508     1.2209 H            1    LIG   0.0000
  48 H            3.7695     1.1266     2.0148 H            1    LIG   0.0000
@<TRIPOS>BOND
   1        1        2 1
   2        2        3 ar
   3        3        4 ar
   4        4        5 ar
   5        5        6 ar
   6        6        7 ar
   7        7        2 ar
   8        7        8 1
   9        8        9 1
  10        9       10 1
  11       10       11 2
  12       10       12 am
  13       12       13 1
  14       13       14 2
  15       14       15 1
  16       15       16 1
  17       16       17 2
  18       17       18 1
  19       18       19 2
  20       19       20 1
  21       20       16 1
  22       15       21 2
  23       21       22 1
  24       22       13 1
  25       22       23 1
  26       23       24 1
  27       23       25 1
  28       12       26 am
  29       26       27 2
  30       26       28 am
  31       28        6 1
  32       28        9 1
  33        9       29 1
  34        1       30 1
  35        1       31 1
  36        1       32 1
  37        3       33 1
  38        4       34 1
  39        5       35 1
  40        8       36 1
  41        8       37 1
  42       14       38 1
  43       17       39 1
  44       18       40 1
  45       19       41 1
  46       23       42 1
  47       24       43 1
  48       24       44 1
  49       24       45 1
  50       25       46 1
  51       25       47 1
  52       25       48 1

@<TRIPOS>MOLECULE

  48   52
SMALL
USER_CHARGES
@<TRIPOS>ATOM
   1 C1           2.2719    -8.1603    -0.6693 C.3          1    LIG   0.0000
   2 C2           2.6971    -7.1764     0.4074 C.ar         1    LIG   0.0000
   3 C3           3.2099    -7.6402     1.6161 C.ar         1    LIG   0.0000
   4 C4           3.6019    -6.7360     2.5980 C.ar         1    LIG   0.0000
   5 C5           3.4718    -5.3722     2.3562 C.ar         1    LIG   0.0000
   6 C6           2.9425    -4.9137     1.1517 C.ar         1    LIG   0.0000
   7 C7           2.5629    -5.8118     0.1802 C.ar         1    LIG   0.0000
   8 C8           2.0555    -4.9464    -0.9631 C.3          1    LIG   0.0000
   9 C9           2.7847    -3.6331    -0.8027 C.3          1    LIG   0.0000
  10 C10          2.1430    -2.3318    -1.2382 C.2          1    LIG   0.0000
  11 O11          1.9356    -1.9643    -2.3925 O.2          1    LIG   0.0000
  12 N12          1.8957    -1.6287    -0.0570 N.am         1    LIG   0.0000
  13 C13          1.3819    -0.3266    -0.0290 C.2          1    LIG   0.0000
  14 C14          0.0685     0.0226    -0.0052 C.2          1    LIG   0.0000
  15 C15          0.0397     1.4349     0.0154 C.2          1    LIG   0.0000
  16 C16         -1.1415     2.2705     0.0392 C.2          1    LIG   0.0000
  17 C17         -1.1291     3.6299     0.0597 C.2          1    LIG   0.0000
  18 C18         -2.4882     4.0149     0.0849 C.2          1    LIG   0.0000
  19 C19         -3.2186     2.8651     0.0760 C.2          1    LIG   0.0000
  20 O20         -2.3861     1.8462     0.0456 O.2          1    LIG   0.0000
  21 N21          1.2840     1.8431     0.0082 N.2          1    LIG   0.0000
  22 N22          2.1065     0.8240    -0.0206 N.pl3        1    LIG   0.0000
  23 C23          3.5759     0.9034    -0.0435 C.3          1    LIG   0.0000
  24 C24          4.1406     0.1967     1.1780 C.3          1    LIG   0.0000
  25 C25          4.0999     0.2340    -1.3035 C.3          1    LIG   0.0000
  26 C26          2.2051    -2.3913     1.0509 C.2          1    LIG   0.0000
  27 O27          2.0811    -2.0384     2.2063 O.2          1    LIG   0.0000
  28 N28          2.6687    -3.6448     0.6451 N.am         1    LIG   0.0000
  29 H            3.7371    -3.6970    -1.1008 H            1    LIG   0.0000
  30 H            2.4328    -9.0941    -0.3498 H            1    LIG   0.0000
  31 H            1.2992    -8.0385    -0.8668 H            1    LIG   0.0000
  32 H            2.8039    -7.9959    -1.4999 H            1    LIG   0.0000
  33 H            3.2964    -8.6231     1.7783 H            1    LIG   0.0000
  34 H            3.9728    -7.0626     3.4674 H            1    LIG   0.0000
  35 H            3.7605    -4.7154     3.0527 H            1    LIG   0.0000
  36 H            1.0671    -4.8120    -0.8918 H            1    LIG   0.0000
  37 H            2.2722    -5.3647    -1.8451 H            1    LIG   0.0000
  38 H           -0.7179    -0.5950    -0.0028 H            1    LIG   0.0000
  39 H           -0.3288     4.2294     0.0574 H            1    LIG   0.0000
  40 H           -2.8445     4.9491     0.1052 H            1    LIG   0.0000
  41 H           -4.2167     2.8054     0.0902 H            1    LIG   0.0000
  42 H            3.8581     1.8627    -0.0337 H            1    LIG   0.0000
  43 H            5.1390     0.2506     1.1625 H            1    LIG   0.0000
  44 H            3.7959     0.6371     2.0070 H            1    LIG   0.0000
  45 H            3.8584    -0.7627     1.1682 H            1    LIG   0.0000
  46 H            5.0984     0.2879    -1.3191 H            1    LIG   0.0000
  47 H            3.8178    -0.7253    -1.3133 H            1    LIG   0.0000
  48 H            3.7285     0.6989    -2.1072 H            1    LIG   0.0000
@<TRIPOS>BOND
   1        1        2 1
   2        2        3 ar
   3        3        4 ar
   4        4        5 ar
   5        5        6 ar
   6        6        7 ar
   7        7        2 ar
   8        7        8 1
   9        8        9 1
  10        9       10 1
  11       10       11 2
  12       10       12 am
  13       12       13 1
  14       13       14 2
  15       14       15 1
  16       15       16 1
  17       16       17 2
  18       17       18 1
  19       18       19 2
  20       19       20 1
  21       20       16 1
  22       15       21 2
  23       21       22 1
  24       22       13 1
  25       22       23 1
  26       23       24 1
  27       23       25 1
  28       12       26 am
  29       26       27 2
  30       26       28 am
  31       28        6 1
  32       28        9 1
  33        9       29 1
  34        1       30 1
  35        1       31 1
  36        1       32 1
  37        3       33 1
  38        4       34 1
  39        5       35 1
  40        8       36 1
  41        8       37 1
  42       14       38 1
  43       17       39 1
  44       18       40 1
  45       19       41 1
  46       23       42 1
  47       24       43 1
  48       24       44 1
  49       24       45 1
  50       25       46 1
  51       25       47 1
  52       25       48 1

@<TRIPOS>MOLECULE

  48   52
SMALL
USER_CHARGES
@<TRIPOS>ATOM
   1 C1           2.2719    -8.1603    -0.6693 C.3          1    LIG   0.0000
   2 C2           2.6971    -7.1764     0.4074 C.ar         1    LIG   0.0000
   3 C3           3.2099    -7.6402     1.6161 C.ar         1    LIG   0.0000
   4 C4           3.6019    -6.7360     2.5980 C.ar         1    LIG   0.0000
   5 C5           3.4718    -5.3722     2.3562 C.ar         1    LIG   0.0000
   6 C6           2.9425    -4.9137     1.1517 C.ar         1    LIG   0.0000
   7 C7           2.5629    -5.8118     0.1802 C.ar         1    LIG   0.0000
   8 C8           2.0555    -4.9464    -0.9631 C.3          1    LIG   0.0000
   9 C9           2.7847    -3.6331    -0.8027 C.3          1    LIG   0.0000
  10 C10          2.1430    -2.3318    -1.2382 C.2          1    LIG   0.0000
  11 O11          1.9356    -1.9643    -2.3925 O.2          1    LIG   0.0000
  12 N12          1.8957    -1.6287    -0.0570 N.am         1    LIG   0.0000
  13 C13          1.3819    -0.3266    -0.0290 C.2          1    LIG   0.0000
  14 C14          0.0685     0.0226    -0.0052 C.2          1    LIG   0.0000
  15 C15          0.0397     1.4349     0.0154 C.2          1    LIG   0.0000
  16 C16         -1.1415     2.2705     0.0392 C.2          1    LIG   0.0000
  17 C17         -2.4194     1.8065     0.0443 C.2          1    LIG   0.0000
  18 C18         -3.2350     2.9600     0.0630 C.2          1    LIG   0.0000
  19 C19         -2.3937     4.0314     0.0696 C.2          1    LIG   0.0000
  20 O20         -1.1555     3.5854     0.0583 O.2          1    LIG   0.0000
  21 N21          1.2840     1.8431     0.0082 N.2          1    LIG   0.0000
  22 N22          2.1065     0.8240    -0.0206 N.pl3        1    LIG   0.0000
  23 C23          3.5759     0.9034    -0.0435 C.3          1    LIG   0.0000
  24 C24          4.1406     0.1967     1.1780 C.3          1    LIG   0.0000
  25 C25          4.0999     0.2340    -1.3035 C.3          1    LIG   0.0000
  26 C26          2.2051    -2.3913     1.0509 C.2          1    LIG   0.0000
  27 O27          2.0811    -2.0384     2.2063 O.2          1    LIG   0.0000
  28 N28          2.6687    -3.6448     0.6451 N.am         1    LIG   0.0000
  29 H            3.7371    -3.6970    -1.1008 H            1    LIG   0.0000
  30 H            2.4328    -9.0941    -0.3498 H            1    LIG   0.0000
  31 H            1.2992    -8.0385    -0.8668 H            1    LIG   0.0000
  32 H            2.8039    -7.9959    -1.4999 H            1    LIG   0.0000
  33 H            3.2964    -8.6231     1.7783 H            1    LIG   0.0000
  34 H            3.9728    -7.0626     3.4674 H            1    LIG   0.0000
  35 H            3.7605    -4.7154     3.0527 H            1    LIG   0.0000
  36 H            1.0671    -4.8120    -0.8918 H            1    LIG   0.0000
  37 H            2.2722    -5.3647    -1.8451 H            1    LIG   0.0000
  38 H           -0.7179    -0.5950    -0.0028 H            1    LIG   0.0000
  39 H           -2.7183     0.8523     0.0364 H            1    LIG   0.0000
  40 H           -4.2347     2.9850     0.0700 H            1    LIG   0.0000
  41 H           -2.6697     4.9924     0.0811 H            1    LIG   0.0000
  42 H            3.8581     1.8627    -0.0337 H            1    LIG   0.0000
  43 H            5.1390     0.2506     1.1625 H            1    LIG   0.0000
  44 H            3.7959     0.6371     2.0070 H            1    LIG   0.0000
  45 H            3.8584    -0.7627     1.1682 H            1    LIG   0.0000
  46 H            5.0984     0.2879    -1.3191 H            1    LIG   0.0000
  47 H            3.8178    -0.7253    -1.3133 H            1    LIG   0.0000
  48 H            3.7285     0.6989    -2.1072 H            1    LIG   0.0000
@<TRIPOS>BOND
   1        1        2 1
   2        2        3 ar
   3        3        4 ar
   4        4        5 ar
   5        5        6 ar
   6        6        7 ar
   7        7        2 ar
   8        7        8 1
   9        8        9 1
  10        9       10 1
  11       10       11 2
  12       10       12 am
  13       12       13 1
  14       13       14 2
  15       14       15 1
  16       15       16 1
  17       16       17 2
  18       17       18 1
  19       18       19 2
  20       19       20 1
  21       20       16 1
  22       15       21 2
  23       21       22 1
  24       22       13 1
  25       22       23 1
  26       23       24 1
  27       23       25 1
  28       12       26 am
  29       26       27 2
  30       26       28 am
  31       28        6 1
  32       28        9 1
  33        9       29 1
  34        1       30 1
  35        1       31 1
  36        1       32 1
  37        3       33 1
  38        4       34 1
  39        5       35 1
  40        8       36 1
  41        8       37 1
  42       14       38 1
  43       17       39 1
  44       18       40 1
  45       19       41 1
  46       23       42 1
  47       24       43 1
  48       24       44 1
  49       24       45 1
  50       25       46 1
  51       25       47 1
  52       25       48 1

@<TRIPOS>MOLECULE

  48   52
SMALL
USER_CHARGES
@<TRIPOS>ATOM
   1 C1           1.5317    -8.1352    -0.6593 C.3          1    LIG   0.0000
   2 C2           1.5820    -7.1005     0.4479 C.ar         1    LIG   0.0000
   3 C3           1.1126    -7.4393     1.7105 C.ar         1    LIG   0.0000
   4 C4           1.1562    -6.5000     2.7362 C.ar         1    LIG   0.0000
   5 C5           1.6488    -5.2275     2.4727 C.ar         1    LIG   0.0000
   6 C6           2.0848    -4.8851     1.1989 C.ar         1    LIG   0.0000
   7 C7           2.0919    -5.8312     0.2272 C.ar         1    LIG   0.0000
   8 C8           2.6991    -5.1308    -0.9885 C.3          1    LIG   0.0000
   9 C9           2.7769    -3.6315    -0.7093 C.3          1    LIG   0.0000
  10 C10          2.1499    -2.3796    -1.2020 C.2          1    LIG   0.0000
  11 O11          1.9397    -2.0529    -2.3499 O.2          1    LIG   0.0000
  12 N12          1.8925    -1.6205    -0.0568 N.am         1    LIG   0.0000
  13 C13          1.3819    -0.3266    -0.0290 C.2          1    LIG   0.0000
  14 C14          0.0685     0.0226    -0.0052 C.2          1    LIG   0.0000
  15 C15          0.0397     1.4349     0.0154 C.2          1    LIG   0.0000
  16 C16         -1.1415     2.2705     0.0392 C.2          1    LIG   0.0000
  17 C17         -1.1291     3.6299     0.0597 C.2          1    LIG   0.0000
  18 C18         -2.4882     4.0149     0.0849 C.2          1    LIG   0.0000
  19 C19         -3.2186     2.8651     0.0760 C.2          1    LIG   0.0000
  20 O20         -2.3861     1.8462     0.0456 O.2          1    LIG   0.0000
  21 N21          1.2840     1.8431     0.0082 N.2          1    LIG   0.0000
  22 N22          2.1065     0.8240    -0.0206 N.pl3        1    LIG   0.0000
  23 C23          3.5759     0.9034    -0.0435 C.3          1    LIG   0.0000
  24 C24          4.0230     1.6648    -1.2808 C.3          1    LIG   0.0000
  25 C25          4.0637     1.6275     1.2008 C.3          1    LIG   0.0000
  26 C26          2.1927    -2.3596     1.0674 C.2          1    LIG   0.0000
  27 O27          2.0821    -1.9525     2.1966 O.2          1    LIG   0.0000
  28 N28          2.5036    -3.6577     0.6825 N.am         1    LIG   0.0000
  29 H            3.7566    -3.4356    -0.7522 H            1    LIG   0.0000
  30 H            1.1333    -8.9818    -0.3064 H            1    LIG   0.0000
  31 H            0.9704    -7.7909    -1.4119 H            1    LIG   0.0000
  32 H            2.4582    -8.3151    -0.9897 H            1    LIG   0.0000
  33 H            0.7453    -8.3535     1.8815 H            1    LIG   0.0000
  34 H            0.8364    -6.7381     3.6532 H            1    LIG   0.0000
  35 H            1.6899    -4.5510     3.2080 H            1    LIG   0.0000
  36 H            2.1248    -5.2933    -1.7909 H            1    LIG   0.0000
  37 H            3.6174    -5.4887    -1.1579 H            1    LIG   0.0000
  38 H           -0.7179    -0.5950    -0.0028 H            1    LIG   0.0000
  39 H           -0.3288     4.2294     0.0574 H            1    LIG   0.0000
  40 H           -2.8445     4.9491     0.1052 H            1    LIG   0.0000
  41 H           -4.2167     2.8054     0.0902 H            1    LIG   0.0000
  42 H            3.9594    -0.0200    -0.0637 H            1    LIG   0.0000
  43 H            5.0214     1.7187    -1.2963 H            1    LIG   0.0000
  44 H            3.7021     1.1884    -2.0994 H            1    LIG   0.0000
  45 H            3.6396     2.5881    -1.2606 H            1    LIG   0.0000
  46 H            5.0621     1.6814     1.1852 H            1    LIG   0.0000
  47 H            3.6803     2.5508     1.2209 H            1    LIG   0.0000
  48 H            3.7695     1.1266     2.0148 H            1    LIG   0.0000
@<TRIPOS>BOND
   1        1        2 1
   2        2        3 ar
   3        3        4 ar
   4        4        5 ar
   5        5        6 ar
   6        6        7 ar
   7        7        2 ar
   8        7        8 1
   9        8        9 1
  10        9       10 1
  11       10       11 2
  12       10       12 am
  13       12       13 1
  14       13       14 2
  15       14       15 1
  16       15       16 1
  17       16       17 2
  18       17       18 1
  19       18       19 2
  20       19       20 1
  21       20       16 1
  22       15       21 2
  23       21       22 1
  24       22       13 1
  25       22       23 1
  26       23       24 1
  27       23       25 1
  28       12       26 am
  29       26       27 2
  30       26       28 am
  31       28        6 1
  32       28        9 1
  33        9       29 1
  34        1       30 1
  35        1       31 1
  36        1       32 1
  37        3       33 1
  38        4       34 1
  39        5       35 1
  40        8       36 1
  41        8       37 1
  42       14       38 1
  43       17       39 1
  44       18       40 1
  45       19       41 1
  46       23       42 1
  47       24       43 1
  48       24       44 1
  49       24       45 1
  50       25       46 1
  51       25       47 1
  52       25       48 1

@<TRIPOS>MOLECULE

  48   52
SMALL
USER_CHARGES
@<TRIPOS>ATOM
   1 C1           1.5317    -8.1352    -0.6593 C.3          1    LIG   0.0000
   2 C2           1.5820    -7.1005     0.4479 C.ar         1    LIG   0.0000
   3 C3           1.1126    -7.4393     1.7105 C.ar         1    LIG   0.0000
   4 C4           1.1562    -6.5000     2.7362 C.ar         1    LIG   0.0000
   5 C5           1.6488    -5.2275     2.4727 C.ar         1    LIG   0.0000
   6 C6           2.0848    -4.8851     1.1989 C.ar         1    LIG   0.0000
   7 C7           2.0919    -5.8312     0.2272 C.ar         1    LIG   0.0000
   8 C8           2.6991    -5.1308    -0.9885 C.3          1    LIG   0.0000
   9 C9           2.7769    -3.6315    -0.7093 C.3          1    LIG   0.0000
  10 C10          2.1499    -2.3796    -1.2020 C.2          1    LIG   0.0000
  11 O11          1.9397    -2.0529    -2.3499 O.2          1    LIG   0.0000
  12 N12          1.8925    -1.6205    -0.0568 N.am         1    LIG   0.0000
  13 C13          1.3819    -0.3266    -0.0290 C.2          1    LIG   0.0000
  14 C14          0.0685     0.0226    -0.0052 C.2          1    LIG   0.0000
  15 C15          0.0397     1.4349     0.0154 C.2          1    LIG   0.0000
  16 C16         -1.1415     2.2705     0.0392 C.2          1    LIG   0.0000
  17 C17         -2.4194     1.8065     0.0443 C.2          1    LIG   0.0000
  18 C18         -3.2350     2.9600     0.0630 C.2          1    LIG   0.0000
  19 C19         -2.3937     4.0314     0.0696 C.2          1    LIG   0.0000
  20 O20         -1.1555     3.5854     0.0583 O.2          1    LIG   0.0000
  21 N21          1.2840     1.8431     0.0082 N.2          1    LIG   0.0000
  22 N22          2.1065     0.8240    -0.0206 N.pl3        1    LIG   0.0000
  23 C23          3.5759     0.9034    -0.0435 C.3          1    LIG   0.0000
  24 C24          4.0230     1.6648    -1.2808 C.3          1    LIG   0.0000
  25 C25          4.0637     1.6275     1.2008 C.3          1    LIG   0.0000
  26 C26          2.1927    -2.3596     1.0674 C.2          1    LIG   0.0000
  27 O27          2.0821    -1.9525     2.1966 O.2          1    LIG   0.0000
  28 N28          2.5036    -3.6577     0.6825 N.am         1    LIG   0.0000
  29 H            3.7566    -3.4356    -0.7522 H            1    LIG   0.0000
  30 H            1.1333    -8.9818    -0.3064 H            1    LIG   0.0000
  31 H            0.9704    -7.7909    -1.4119 H            1    LIG   0.0000
  32 H            2.4582    -8.3151    -0.9897 H            1    LIG   0.0000
  33 H            0.7453    -8.3535     1.8815 H            1    LIG   0.0000
  34 H            0.8364    -6.7381     3.6532 H            1    LIG   0.0000
  35 H            1.6899    -4.5510     3.2080 H            1    LIG   0.0000
  36 H            2.1248    -5.2933    -1.7909 H            1    LIG   0.0000
  37 H            3.6174    -5.4887    -1.1579 H            1    LIG   0.0000
  38 H           -0.7179    -0.5950    -0.0028 H            1    LIG   0.0000
  39 H           -2.7183     0.8523     0.0364 H            1    LIG   0.0000
  40 H           -4.2347     2.9850     0.0700 H            1    LIG   0.0000
  41 H           -2.6697     4.9924     0.0811 H            1    LIG   0.0000
  42 H            3.9594    -0.0200    -0.0637 H            1    LIG   0.0000
  43 H            5.0214     1.7187    -1.2963 H            1    LIG   0.0000
  44 H            3.7021     1.1884    -2.0994 H            1    LIG   0.0000
  45 H            3.6396     2.5881    -1.2606 H            1    LIG   0.0000
  46 H            5.0621     1.6814     1.1852 H            1    LIG   0.0000
  47 H            3.6803     2.5508     1.2209 H            1    LIG   0.0000
  48 H            3.7695     1.1266     2.0148 H            1    LIG   0.0000
@<TRIPOS>BOND
   1        1        2 1
   2        2        3 ar
   3        3        4 ar
   4        4        5 ar
   5        5        6 ar
   6        6        7 ar
   7        7        2 ar
   8        7        8 1
   9        8        9 1
  10        9       10 1
  11       10       11 2
  12       10       12 am
  13       12       13 1
  14       13       14 2
  15       14       15 1
  16       15       16 1
  17       16       17 2
  18       17       18 1
  19       18       19 2
  20       19       20 1
  21       20       16 1
  22       15       21 2
  23       21       22 1
  24       22       13 1
  25       22       23 1
  26       23       24 1
  27       23       25 1
  28       12       26 am
  29       26       27 2
  30       26       28 am
  31       28        6 1
  32       28        9 1
  33        9       29 1
  34        1       30 1
  35        1       31 1
  36        1       32 1
  37        3       33 1
  38        4       34 1
  39        5       35 1
  40        8       36 1
  41        8       37 1
  42       14       38 1
  43       17       39 1
  44       18       40 1
  45       19       41 1
  46       23       42 1
  47       24       43 1
  48       24       44 1
  49       24       45 1
  50       25       46 1
  51       25       47 1
  52       25       48 1

@<TRIPOS>MOLECULE

  48   52
SMALL
USER_CHARGES
@<TRIPOS>ATOM
   1 C1           1.5317    -8.1352    -0.6593 C.3          1    LIG   0.0000
   2 C2           1.5820    -7.1005     0.4479 C.ar         1    LIG   0.0000
   3 C3           1.1126    -7.4393     1.7105 C.ar         1    LIG   0.0000
   4 C4           1.1562    -6.5000     2.7362 C.ar         1    LIG   0.0000
   5 C5           1.6488    -5.2275     2.4727 C.ar         1    LIG   0.0000
   6 C6           2.0848    -4.8851     1.1989 C.ar         1    LIG   0.0000
   7 C7           2.0919    -5.8312     0.2272 C.ar         1    LIG   0.0000
   8 C8           2.6991    -5.1308    -0.9885 C.3          1    LIG   0.0000
   9 C9           2.7769    -3.6315    -0.7093 C.3          1    LIG   0.0000
  10 C10          2.1499    -2.3796    -1.2020 C.2          1    LIG   0.0000
  11 O11          1.9397    -2.0529    -2.3499 O.2          1    LIG   0.0000
  12 N12          1.8925    -1.6205    -0.0568 N.am         1    LIG   0.0000
  13 C13          1.3819    -0.3266    -0.0290 C.2          1    LIG   0.0000
  14 C14          0.0685     0.0226    -0.0052 C.2          1    LIG   0.0000
  15 C15          0.0397     1.4349     0.0154 C.2          1    LIG   0.0000
  16 C16         -1.1415     2.2705     0.0392 C.2          1    LIG   0.0000
  17 C17         -1.1291     3.6299     0.0597 C.2          1    LIG   0.0000
  18 C18         -2.4882     4.0149     0.0849 C.2          1    LIG   0.0000
  19 C19         -3.2186     2.8651     0.0760 C.2          1    LIG   0.0000
  20 O20         -2.3861     1.8462     0.0456 O.2          1    LIG   0.0000
  21 N21          1.2840     1.8431     0.0082 N.2          1    LIG   0.0000
  22 N22          2.1065     0.8240    -0.0206 N.pl3        1    LIG   0.0000
  23 C23          3.5759     0.9034    -0.0435 C.3          1    LIG   0.0000
  24 C24          4.1406     0.1967     1.1780 C.3          1    LIG   0.0000
  25 C25          4.0999     0.2340    -1.3035 C.3          1    LIG   0.0000
  26 C26          2.1927    -2.3596     1.0674 C.2          1    LIG   0.0000
  27 O27          2.0821    -1.9525     2.1966 O.2          1    LIG   0.0000
  28 N28          2.5036    -3.6577     0.6825 N.am         1    LIG   0.0000
  29 H            3.7566    -3.4356    -0.7522 H            1    LIG   0.0000
  30 H            1.1333    -8.9818    -0.3064 H            1    LIG   0.0000
  31 H            0.9704    -7.7909    -1.4119 H            1    LIG   0.0000
  32 H            2.4582    -8.3151    -0.9897 H            1    LIG   0.0000
  33 H            0.7453    -8.3535     1.8815 H            1    LIG   0.0000
  34 H            0.8364    -6.7381     3.6532 H            1    LIG   0.0000
  35 H            1.6899    -4.5510     3.2080 H            1    LIG   0.0000
  36 H            2.1248    -5.2933    -1.7909 H            1    LIG   0.0000
  37 H            3.6174    -5.4887    -1.1579 H            1    LIG   0.0000
  38 H           -0.7179    -0.5950    -0.0028 H            1    LIG   0.0000
  39 H           -0.3288     4.2294     0.0574 H            1    LIG   0.0000
  40 H           -2.8445     4.9491     0.1052 H            1    LIG   0.0000
  41 H           -4.2167     2.8054     0.0902 H            1    LIG   0.0000
  42 H            3.8581     1.8627    -0.0337 H            1    LIG   0.0000
  43 H            5.1390     0.2506     1.1625 H            1    LIG   0.0000
  44 H            3.7959     0.6371     2.0070 H            1    LIG   0.0000
  45 H            3.8584    -0.7627     1.1682 H            1    LIG   0.0000
  46 H            5.0984     0.2879    -1.3191 H            1    LIG   0.0000
  47 H            3.8178    -0.7253    -1.3133 H            1    LIG   0.0000
  48 H            3.7285     0.6989    -2.1072 H            1    LIG   0.0000
@<TRIPOS>BOND
   1        1        2 1
   2        2        3 ar
   3        3        4 ar
   4        4        5 ar
   5        5        6 ar
   6        6        7 ar
   7        7        2 ar
   8        7        8 1
   9        8        9 1
  10        9       10 1
  11       10       11 2
  12       10       12 am
  13       12       13 1
  14       13       14 2
  15       14       15 1
  16       15       16 1
  17       16       17 2
  18       17       18 1
  19       18       19 2
  20       19       20 1
  21       20       16 1
  22       15       21 2
  23       21       22 1
  24       22       13 1
  25       22       23 1
  26       23       24 1
  27       23       25 1
  28       12       26 am
  29       26       27 2
  30       26       28 am
  31       28        6 1
  32       28        9 1
  33        9       29 1
  34        1       30 1
  35        1       31 1
  36        1       32 1
  37        3       33 1
  38        4       34 1
  39        5       35 1
  40        8       36 1
  41        8       37 1
  42       14       38 1
  43       17       39 1
  44       18       40 1
  45       19       41 1
  46       23       42 1
  47       24       43 1
  48       24       44 1
  49       24       45 1
  50       25       46 1
  51       25       47 1
  52       25       48 1

@<TRIPOS>MOLECULE

  48   52
SMALL
USER_CHARGES
@<TRIPOS>ATOM
   1 C1           1.5317    -8.1352    -0.6593 C.3          1    LIG   0.0000
   2 C2           1.5820    -7.1005     0.4479 C.ar         1    LIG   0.0000
   3 C3           1.1126    -7.4393     1.7105 C.ar         1    LIG   0.0000
   4 C4           1.1562    -6.5000     2.7362 C.ar         1    LIG   0.0000
   5 C5           1.6488    -5.2275     2.4727 C.ar         1    LIG   0.0000
   6 C6           2.0848    -4.8851     1.1989 C.ar         1    LIG   0.0000
   7 C7           2.0919    -5.8312     0.2272 C.ar         1    LIG   0.0000
   8 C8           2.6991    -5.1308    -0.9885 C.3          1    LIG   0.0000
   9 C9           2.7769    -3.6315    -0.7093 C.3          1    LIG   0.0000
  10 C10          2.1499    -2.3796    -1.2020 C.2          1    LIG   0.0000
  11 O11          1.9397    -2.0529    -2.3499 O.2          1    LIG   0.0000
  12 N12          1.8925    -1.6205    -0.0568 N.am         1    LIG   0.0000
  13 C13          1.3819    -0.3266    -0.0290 C.2          1    LIG   0.0000
  14 C14          0.0685     0.0226    -0.0052 C.2          1    LIG   0.0000
  15 C15          0.0397     1.4349     0.0154 C.2          1    LIG   0.0000
  16 C16         -1.1415     2.2705     0.0392 C.2          1    LIG   0.0000
  17 C17         -2.4194     1.8065     0.0443 C.2          1    LIG   0.0000
  18 C18         -3.2350     2.9600     0.0630 C.2          1    LIG   0.0000
  19 C19         -2.3937     4.0314     0.0696 C.2          1    LIG   0.0000
  20 O20         -1.1555     3.5854     0.0583 O.2          1    LIG   0.0000
  21 N21          1.2840     1.8431     0.0082 N.2          1    LIG   0.0000
  22 N22          2.1065     0.8240    -0.0206 N.pl3        1    LIG   0.0000
  23 C23          3.5759     0.9034    -0.0435 C.3          1    LIG   0.0000
  24 C24          4.1406     0.1967     1.1780 C.3          1    LIG   0.0000
  25 C25          4.0999     0.2340    -1.3035 C.3          1    LIG   0.0000
  26 C26          2.1927    -2.3596     1.0674 C.2          1    LIG   0.0000
  27 O27          2.0821    -1.9525     2.1966 O.2          1    LIG   0.0000
  28 N28          2.5036    -3.6577     0.6825 N.am         1    LIG   0.0000
  29 H            3.7566    -3.4356    -0.7522 H            1    LIG   0.0000
  30 H            1.1333    -8.9818    -0.3064 H            1    LIG   0.0000
  31 H            0.9704    -7.7909    -1.4119 H            1    LIG   0.0000
  32 H            2.4582    -8.3151    -0.9897 H            1    LIG   0.0000
  33 H            0.7453    -8.3535     1.8815 H            1    LIG   0.0000
  34 H            0.8364    -6.7381     3.6532 H            1    LIG   0.0000
  35 H            1.6899    -4.5510     3.2080 H            1    LIG   0.0000
  36 H            2.1248    -5.2933    -1.7909 H            1    LIG   0.0000
  37 H            3.6174    -5.4887    -1.1579 H            1    LIG   0.0000
  38 H           -0.7179    -0.5950    -0.0028 H            1    LIG   0.0000
  39 H           -2.7183     0.8523     0.0364 H            1    LIG   0.0000
  40 H           -4.2347     2.9850     0.0700 H            1    LIG   0.0000
  41 H           -2.6697     4.9924     0.0811 H            1    LIG   0.0000
  42 H            3.8581     1.8627    -0.0337 H            1    LIG   0.0000
  43 H            5.1390     0.2506     1.1625 H            1    LIG   0.0000
  44 H            3.7959     0.6371     2.0070 H            1    LIG   0.0000
  45 H            3.8584    -0.7627     1.1682 H            1    LIG   0.0000
  46 H            5.0984     0.2879    -1.3191 H            1    LIG   0.0000
  47 H            3.8178    -0.7253    -1.3133 H            1    LIG   0.0000
  48 H            3.7285     0.6989    -2.1072 H            1    LIG   0.0000
@<TRIPOS>BOND
   1        1        2 1
   2        2        3 ar
   3        3        4 ar
   4        4        5 ar
   5        5        6 ar
   6        6        7 ar
   7        7        2 ar
   8        7        8 1
   9        8        9 1
  10        9       10 1
  11       10       11 2
  12       10       12 am
  13       12       13 1
  14       13       14 2
  15       14       15 1
  16       15       16 1
  17       16       17 2
  18       17       18 1
  19       18       19 2
  20       19       20 1
  21       20       16 1
  22       15       21 2
  23       21       22 1
  24       22       13 1
  25       22       23 1
  26       23       24 1
  27       23       25 1
  28       12       26 am
  29       26       27 2
  30       26       28 am
  31       28        6 1
  32       28        9 1
  33        9       29 1
  34        1       30 1
  35        1       31 1
  36        1       32 1
  37        3       33 1
  38        4       34 1
  39        5       35 1
  40        8       36 1
  41        8       37 1
  42       14       38 1
  43       17       39 1
  44       18       40 1
  45       19       41 1
  46       23       42 1
  47       24       43 1
  48       24       44 1
  49       24       45 1
  50       25       46 1
  51       25       47 1
  52       25       48 1

