@<TRIPOS>MOLECULE

  66   69
SMALL
USER_CHARGES
@<TRIPOS>ATOM
   1 C1           5.9674    -1.9056     0.7012 C.3          1    LIG   0.0000
   2 C2           4.9198    -1.6430     1.7708 C.3          1    LIG   0.0000
   3 C3           4.4384    -0.2051     1.6664 C.3          1    LIG   0.0000
   4 C4           3.3909     0.0575     2.7360 C.3          1    LIG   0.0000
   5 N5           2.9252     1.4484     2.6350 N.pl3        1    LIG   0.0000
   6 C6           1.8774     1.8774     1.8774 C.2          1    LIG   0.0000
   7 C7           1.0000     1.0000     1.0000 C.3          1    LIG   0.0000
   8 C8          -0.0543     1.8575     0.3191 C.3          1    LIG   0.0000
   9 C9          -0.9318     0.9800    -0.5584 C.2          1    LIG   0.0000
  10 O10         -0.7258    -0.2004    -0.6232 O.2          1    LIG   0.0000
  11 N11         -1.9580     1.5366    -1.2754 N.am         1    LIG   0.0000
  12 C12         -2.7665     0.7281    -2.0839 C.ar         1    LIG   0.0000
  13 C13         -2.2361    -0.4196    -2.6640 C.ar         1    LIG   0.0000
  14 C14         -3.0517    -1.2132    -3.4644 C.ar         1    LIG   0.0000
  15 C15         -4.3793    -0.8540    -3.6764 C.ar         1    LIG   0.0000
  16 C16         -5.2645    -1.7248    -4.5535 C.3          1    LIG   0.0000
  17 C17         -4.9133     0.2923    -3.0977 C.ar         1    LIG   0.0000
  18 C18         -4.0944     1.0821    -2.2979 C.ar         1    LIG   0.0000
  19 O19         -4.5964     2.1984    -1.7284 O.3          1    LIG   0.0000
  20 N20          1.7463     3.1753     2.0254 N.2          1    LIG   0.0000
  21 C21          2.7176     3.5958     2.8877 C.ar         1    LIG   0.0000
  22 C22          3.0056     4.8696     3.3662 C.ar         1    LIG   0.0000
  23 C23          4.0579     5.0811     4.2514 C.ar         1    LIG   0.0000
  24 S24          4.4181     6.6752     4.8502 S.o2         1    LIG   0.0000
  25 O25          5.8285     6.7788     5.1215 O.2          1    LIG   0.0000
  26 O26          4.0462     7.6545     3.8620 O.2          1    LIG   0.0000
  27 N27          3.5130     6.9638     6.3315 N.3          1    LIG   0.0000
  28 C28          3.8143     5.9380     7.3356 C.3          1    LIG   0.0000
  29 C29          2.7116     6.1439     8.3534 C.3          1    LIG   0.0000
  30 C30          1.5329     6.6265     7.5330 C.3          1    LIG   0.0000
  31 C31          2.0717     6.7867     6.1227 C.3          1    LIG   0.0000
  32 C32          4.8269     3.9946     4.6568 C.ar         1    LIG   0.0000
  33 C33          4.5252     2.7276     4.1688 C.ar         1    LIG   0.0000
  34 C34          3.4719     2.5159     3.2836 C.ar         1    LIG   0.0000
  35 H            6.2841    -2.8516     0.7699 H            1    LIG   0.0000
  36 H            5.5668    -1.7530    -0.2023 H            1    LIG   0.0000
  37 H            6.7404    -1.2849     0.8322 H            1    LIG   0.0000
  38 H            4.1468    -2.2637     1.6398 H            1    LIG   0.0000
  39 H            5.3204    -1.7957     2.6743 H            1    LIG   0.0000
  40 H            5.2114     0.4156     1.7974 H            1    LIG   0.0000
  41 H            4.0378    -0.0524     0.7629 H            1    LIG   0.0000
  42 H            2.6178    -0.5632     2.6050 H            1    LIG   0.0000
  43 H            3.7914    -0.0951     3.6395 H            1    LIG   0.0000
  44 H            0.5521     0.3064     1.5642 H            1    LIG   0.0000
  45 H            1.5642     0.5521     0.3064 H            1    LIG   0.0000
  46 H           -0.6184     2.3055     1.0127 H            1    LIG   0.0000
  47 H            0.3937     2.5511    -0.2450 H            1    LIG   0.0000
  48 H           -2.1296     2.5203    -1.2214 H            1    LIG   0.0000
  49 H           -1.2810    -0.6711    -2.5076 H            1    LIG   0.0000
  50 H           -2.6841    -2.0414    -3.8873 H            1    LIG   0.0000
  51 H           -4.7362    -2.5040    -4.8908 H            1    LIG   0.0000
  52 H           -6.0417    -2.0557    -4.0183 H            1    LIG   0.0000
  53 H           -5.5978    -1.1876    -5.3282 H            1    LIG   0.0000
  54 H           -5.8685     0.5441    -3.2538 H            1    LIG   0.0000
  55 H           -5.5513     2.4524    -1.8827 H            1    LIG   0.0000
  56 H            2.4481     5.6450     3.0695 H            1    LIG   0.0000
  57 H            4.7153     6.0851     7.7438 H            1    LIG   0.0000
  58 H            3.7737     5.0209     6.9390 H            1    LIG   0.0000
  59 H            2.9775     6.8304     9.0301 H            1    LIG   0.0000
  60 H            2.4928     5.2856     8.8176 H            1    LIG   0.0000
  61 H            0.7932     5.9539     7.5519 H            1    LIG   0.0000
  62 H            1.1970     7.5014     7.8820 H            1    LIG   0.0000
  63 H            1.8866     5.9718     5.5735 H            1    LIG   0.0000
  64 H            1.6733     7.5876     5.6756 H            1    LIG   0.0000
  65 H            5.5882     4.1234     5.2923 H            1    LIG   0.0000
  66 H            5.0794     1.9483     4.4614 H            1    LIG   0.0000
@<TRIPOS>BOND
   1        1        2 1
   2        2        3 1
   3        3        4 1
   4        4        5 1
   5        5        6 1
   6        6        7 1
   7        7        8 1
   8        8        9 1
   9        9       10 2
  10        9       11 am
  11       11       12 1
  12       12       13 ar
  13       13       14 ar
  14       14       15 ar
  15       15       16 1
  16       15       17 ar
  17       17       18 ar
  18       18       12 ar
  19       18       19 1
  20        6       20 2
  21       20       21 1
  22       21       22 ar
  23       22       23 ar
  24       23       24 1
  25       24       25 2
  26       24       26 2
  27       24       27 1
  28       27       28 1
  29       28       29 1
  30       29       30 1
  31       30       31 1
  32       31       27 1
  33       23       32 ar
  34       32       33 ar
  35       33       34 ar
  36       34       21 ar
  37       34        5 1
  38        1       35 1
  39        1       36 1
  40        1       37 1
  41        2       38 1
  42        2       39 1
  43        3       40 1
  44        3       41 1
  45        4       42 1
  46        4       43 1
  47        7       44 1
  48        7       45 1
  49        8       46 1
  50        8       47 1
  51       11       48 1
  52       13       49 1
  53       14       50 1
  54       16       51 1
  55       16       52 1
  56       16       53 1
  57       17       54 1
  58       19       55 1
  59       22       56 1
  60       28       57 1
  61       28       58 1
  62       29       59 1
  63       29       60 1
  64       30       61 1
  65       30       62 1
  66       31       63 1
  67       31       64 1
  68       32       65 1
  69       33       66 1

@<TRIPOS>MOLECULE

  66   69
SMALL
USER_CHARGES
@<TRIPOS>ATOM
   1 C1           5.9674    -1.9056     0.7012 C.3          1    LIG   0.0000
   2 C2           4.9198    -1.6430     1.7708 C.3          1    LIG   0.0000
   3 C3           4.4384    -0.2051     1.6664 C.3          1    LIG   0.0000
   4 C4           3.3909     0.0575     2.7360 C.3          1    LIG   0.0000
   5 N5           2.9252     1.4484     2.6350 N.pl3        1    LIG   0.0000
   6 C6           1.8774     1.8774     1.8774 C.2          1    LIG   0.0000
   7 C7           1.0000     1.0000     1.0000 C.3          1    LIG   0.0000
   8 C8          -0.0543     1.8575     0.3191 C.3          1    LIG   0.0000
   9 C9          -0.9318     0.9800    -0.5584 C.2          1    LIG   0.0000
  10 O10         -0.7258    -0.2004    -0.6232 O.2          1    LIG   0.0000
  11 N11         -1.9580     1.5366    -1.2754 N.am         1    LIG   0.0000
  12 C12         -2.7665     0.7281    -2.0839 C.ar         1    LIG   0.0000
  13 C13         -4.1345     0.6568    -1.8420 C.ar         1    LIG   0.0000
  14 C14         -4.9249    -0.1504    -2.6540 C.ar         1    LIG   0.0000
  15 C15         -4.3446    -0.8737    -3.6915 C.ar         1    LIG   0.0000
  16 C16         -5.2140    -1.7549    -4.5739 C.3          1    LIG   0.0000
  17 C17         -2.9774    -0.8044    -3.9369 C.ar         1    LIG   0.0000
  18 C18         -2.1914     0.0042    -3.1231 C.ar         1    LIG   0.0000
  19 O19         -0.8624     0.0831    -3.3471 O.3          1    LIG   0.0000
  20 N20          1.7463     3.1753     2.0254 N.2          1    LIG   0.0000
  21 C21          2.7176     3.5958     2.8877 C.ar         1    LIG   0.0000
  22 C22          3.0056     4.8696     3.3662 C.ar         1    LIG   0.0000
  23 C23          4.0579     5.0811     4.2514 C.ar         1    LIG   0.0000
  24 S24          4.4181     6.6752     4.8502 S.o2         1    LIG   0.0000
  25 O25          5.8285     6.7788     5.1215 O.2          1    LIG   0.0000
  26 O26          4.0462     7.6545     3.8620 O.2          1    LIG   0.0000
  27 N27          3.5130     6.9638     6.3315 N.3          1    LIG   0.0000
  28 C28          3.8143     5.9380     7.3356 C.3          1    LIG   0.0000
  29 C29          2.7116     6.1439     8.3534 C.3          1    LIG   0.0000
  30 C30          1.5329     6.6265     7.5330 C.3          1    LIG   0.0000
  31 C31          2.0717     6.7867     6.1227 C.3          1    LIG   0.0000
  32 C32          4.8269     3.9946     4.6568 C.ar         1    LIG   0.0000
  33 C33          4.5252     2.7276     4.1688 C.ar         1    LIG   0.0000
  34 C34          3.4719     2.5159     3.2836 C.ar         1    LIG   0.0000
  35 H            6.2841    -2.8516     0.7699 H            1    LIG   0.0000
  36 H            5.5668    -1.7530    -0.2023 H            1    LIG   0.0000
  37 H            6.7404    -1.2849     0.8322 H            1    LIG   0.0000
  38 H            4.1468    -2.2637     1.6398 H            1    LIG   0.0000
  39 H            5.3204    -1.7957     2.6743 H            1    LIG   0.0000
  40 H            5.2114     0.4156     1.7974 H            1    LIG   0.0000
  41 H            4.0378    -0.0524     0.7629 H            1    LIG   0.0000
  42 H            2.6178    -0.5632     2.6050 H            1    LIG   0.0000
  43 H            3.7914    -0.0951     3.6395 H            1    LIG   0.0000
  44 H            0.5521     0.3064     1.5642 H            1    LIG   0.0000
  45 H            1.5642     0.5521     0.3064 H            1    LIG   0.0000
  46 H           -0.6184     2.3055     1.0127 H            1    LIG   0.0000
  47 H            0.3937     2.5511    -0.2450 H            1    LIG   0.0000
  48 H           -2.1296     2.5203    -1.2214 H            1    LIG   0.0000
  49 H           -4.5444     1.1789    -1.0942 H            1    LIG   0.0000
  50 H           -5.9099    -0.2108    -2.4920 H            1    LIG   0.0000
  51 H           -6.1649    -1.6959    -4.2702 H            1    LIG   0.0000
  52 H           -5.1472    -1.4459    -5.5226 H            1    LIG   0.0000
  53 H           -4.9016    -2.7027    -4.5093 H            1    LIG   0.0000
  54 H           -2.5671    -1.3263    -4.6848 H            1    LIG   0.0000
  55 H           -0.4496    -0.4376    -4.0944 H            1    LIG   0.0000
  56 H            2.4481     5.6450     3.0695 H            1    LIG   0.0000
  57 H            4.7153     6.0851     7.7438 H            1    LIG   0.0000
  58 H            3.7737     5.0209     6.9390 H            1    LIG   0.0000
  59 H            2.9775     6.8304     9.0301 H            1    LIG   0.0000
  60 H            2.4928     5.2856     8.8176 H            1    LIG   0.0000
  61 H            0.7932     5.9539     7.5519 H            1    LIG   0.0000
  62 H            1.1970     7.5014     7.8820 H            1    LIG   0.0000
  63 H            1.8866     5.9718     5.5735 H            1    LIG   0.0000
  64 H            1.6733     7.5876     5.6756 H            1    LIG   0.0000
  65 H            5.5882     4.1234     5.2923 H            1    LIG   0.0000
  66 H            5.0794     1.9483     4.4614 H            1    LIG   0.0000
@<TRIPOS>BOND
   1        1        2 1
   2        2        3 1
   3        3        4 1
   4        4        5 1
   5        5        6 1
   6        6        7 1
   7        7        8 1
   8        8        9 1
   9        9       10 2
  10        9       11 am
  11       11       12 1
  12       12       13 ar
  13       13       14 ar
  14       14       15 ar
  15       15       16 1
  16       15       17 ar
  17       17       18 ar
  18       18       12 ar
  19       18       19 1
  20        6       20 2
  21       20       21 1
  22       21       22 ar
  23       22       23 ar
  24       23       24 1
  25       24       25 2
  26       24       26 2
  27       24       27 1
  28       27       28 1
  29       28       29 1
  30       29       30 1
  31       30       31 1
  32       31       27 1
  33       23       32 ar
  34       32       33 ar
  35       33       34 ar
  36       34       21 ar
  37       34        5 1
  38        1       35 1
  39        1       36 1
  40        1       37 1
  41        2       38 1
  42        2       39 1
  43        3       40 1
  44        3       41 1
  45        4       42 1
  46        4       43 1
  47        7       44 1
  48        7       45 1
  49        8       46 1
  50        8       47 1
  51       11       48 1
  52       13       49 1
  53       14       50 1
  54       16       51 1
  55       16       52 1
  56       16       53 1
  57       17       54 1
  58       19       55 1
  59       22       56 1
  60       28       57 1
  61       28       58 1
  62       29       59 1
  63       29       60 1
  64       30       61 1
  65       30       62 1
  66       31       63 1
  67       31       64 1
  68       32       65 1
  69       33       66 1

@<TRIPOS>MOLECULE

  66   69
SMALL
USER_CHARGES
@<TRIPOS>ATOM
   1 C1           5.9674    -1.9056     0.7012 C.3          1    LIG   0.0000
   2 C2           4.9198    -1.6430     1.7708 C.3          1    LIG   0.0000
   3 C3           4.4384    -0.2051     1.6664 C.3          1    LIG   0.0000
   4 C4           3.3909     0.0575     2.7360 C.3          1    LIG   0.0000
   5 N5           2.9252     1.4484     2.6350 N.pl3        1    LIG   0.0000
   6 C6           1.8774     1.8774     1.8774 C.2          1    LIG   0.0000
   7 C7           1.0000     1.0000     1.0000 C.3          1    LIG   0.0000
   8 C8          -0.0543     1.8575     0.3191 C.3          1    LIG   0.0000
   9 C9          -0.9318     0.9800    -0.5584 C.2          1    LIG   0.0000
  10 O10         -0.7258    -0.2004    -0.6232 O.2          1    LIG   0.0000
  11 N11         -1.9580     1.5366    -1.2754 N.am         1    LIG   0.0000
  12 C12         -2.7665     0.7281    -2.0839 C.ar         1    LIG   0.0000
  13 C13         -2.2361    -0.4196    -2.6640 C.ar         1    LIG   0.0000
  14 C14         -3.0517    -1.2132    -3.4644 C.ar         1    LIG   0.0000
  15 C15         -4.3793    -0.8540    -3.6764 C.ar         1    LIG   0.0000
  16 C16         -5.2645    -1.7248    -4.5535 C.3          1    LIG   0.0000
  17 C17         -4.9133     0.2923    -3.0977 C.ar         1    LIG   0.0000
  18 C18         -4.0944     1.0821    -2.2979 C.ar         1    LIG   0.0000
  19 O19         -4.5964     2.1984    -1.7284 O.3          1    LIG   0.0000
  20 N20          1.7463     3.1753     2.0254 N.2          1    LIG   0.0000
  21 C21          2.7176     3.5958     2.8877 C.ar         1    LIG   0.0000
  22 C22          3.0056     4.8696     3.3662 C.ar         1    LIG   0.0000
  23 C23          4.0579     5.0811     4.2514 C.ar         1    LIG   0.0000
  24 S24          4.4181     6.6752     4.8502 S.o2         1    LIG   0.0000
  25 O25          3.2063     7.4510     4.9091 O.2          1    LIG   0.0000
  26 O26          4.9886     6.5753     6.1686 O.2          1    LIG   0.0000
  27 N27          5.5659     7.4612     3.7724 N.3          1    LIG   0.0000
  28 C28          5.0445     7.5128     2.4024 C.3          1    LIG   0.0000
  29 C29          6.2757     7.8758     1.5983 C.3          1    LIG   0.0000
  30 C30          7.4196     7.2392     2.3608 C.3          1    LIG   0.0000
  31 C31          6.7869     6.6633     3.6151 C.3          1    LIG   0.0000
  32 C32          4.8269     3.9946     4.6568 C.ar         1    LIG   0.0000
  33 C33          4.5252     2.7276     4.1688 C.ar         1    LIG   0.0000
  34 C34          3.4719     2.5159     3.2836 C.ar         1    LIG   0.0000
  35 H            6.2841    -2.8516     0.7699 H            1    LIG   0.0000
  36 H            5.5668    -1.7530    -0.2023 H            1    LIG   0.0000
  37 H            6.7404    -1.2849     0.8322 H            1    LIG   0.0000
  38 H            4.1468    -2.2637     1.6398 H            1    LIG   0.0000
  39 H            5.3204    -1.7957     2.6743 H            1    LIG   0.0000
  40 H            5.2114     0.4156     1.7974 H            1    LIG   0.0000
  41 H            4.0378    -0.0524     0.7629 H            1    LIG   0.0000
  42 H            2.6178    -0.5632     2.6050 H            1    LIG   0.0000
  43 H            3.7914    -0.0951     3.6395 H            1    LIG   0.0000
  44 H            0.5521     0.3064     1.5642 H            1    LIG   0.0000
  45 H            1.5642     0.5521     0.3064 H            1    LIG   0.0000
  46 H           -0.6184     2.3055     1.0127 H            1    LIG   0.0000
  47 H            0.3937     2.5511    -0.2450 H            1    LIG   0.0000
  48 H           -2.1296     2.5203    -1.2214 H            1    LIG   0.0000
  49 H           -1.2810    -0.6711    -2.5076 H            1    LIG   0.0000
  50 H           -2.6841    -2.0414    -3.8873 H            1    LIG   0.0000
  51 H           -4.7362    -2.5040    -4.8908 H            1    LIG   0.0000
  52 H           -6.0417    -2.0557    -4.0183 H            1    LIG   0.0000
  53 H           -5.5978    -1.1876    -5.3282 H            1    LIG   0.0000
  54 H           -5.8685     0.5441    -3.2538 H            1    LIG   0.0000
  55 H           -5.5513     2.4524    -1.8827 H            1    LIG   0.0000
  56 H            2.4481     5.6450     3.0695 H            1    LIG   0.0000
  57 H            4.3346     8.2112     2.3118 H            1    LIG   0.0000
  58 H            4.6776     6.6260     2.1215 H            1    LIG   0.0000
  59 H            6.3892     8.8682     1.5522 H            1    LIG   0.0000
  60 H            6.2165     7.5037     0.6720 H            1    LIG   0.0000
  61 H            7.8438     6.5149     1.8173 H            1    LIG   0.0000
  62 H            8.1080     7.9247     2.5979 H            1    LIG   0.0000
  63 H            6.5691     5.6948     3.4944 H            1    LIG   0.0000
  64 H            7.3911     6.7733     4.4043 H            1    LIG   0.0000
  65 H            5.5882     4.1234     5.2923 H            1    LIG   0.0000
  66 H            5.0794     1.9483     4.4614 H            1    LIG   0.0000
@<TRIPOS>BOND
   1        1        2 1
   2        2        3 1
   3        3        4 1
   4        4        5 1
   5        5        6 1
   6        6        7 1
   7        7        8 1
   8        8        9 1
   9        9       10 2
  10        9       11 am
  11       11       12 1
  12       12       13 ar
  13       13       14 ar
  14       14       15 ar
  15       15       16 1
  16       15       17 ar
  17       17       18 ar
  18       18       12 ar
  19       18       19 1
  20        6       20 2
  21       20       21 1
  22       21       22 ar
  23       22       23 ar
  24       23       24 1
  25       24       25 2
  26       24       26 2
  27       24       27 1
  28       27       28 1
  29       28       29 1
  30       29       30 1
  31       30       31 1
  32       31       27 1
  33       23       32 ar
  34       32       33 ar
  35       33       34 ar
  36       34       21 ar
  37       34        5 1
  38        1       35 1
  39        1       36 1
  40        1       37 1
  41        2       38 1
  42        2       39 1
  43        3       40 1
  44        3       41 1
  45        4       42 1
  46        4       43 1
  47        7       44 1
  48        7       45 1
  49        8       46 1
  50        8       47 1
  51       11       48 1
  52       13       49 1
  53       14       50 1
  54       16       51 1
  55       16       52 1
  56       16       53 1
  57       17       54 1
  58       19       55 1
  59       22       56 1
  60       28       57 1
  61       28       58 1
  62       29       59 1
  63       29       60 1
  64       30       61 1
  65       30       62 1
  66       31       63 1
  67       31       64 1
  68       32       65 1
  69       33       66 1

@<TRIPOS>MOLECULE

  66   69
SMALL
USER_CHARGES
@<TRIPOS>ATOM
   1 C1           5.9674    -1.9056     0.7012 C.3          1    LIG   0.0000
   2 C2           4.9198    -1.6430     1.7708 C.3          1    LIG   0.0000
   3 C3           4.4384    -0.2051     1.6664 C.3          1    LIG   0.0000
   4 C4           3.3909     0.0575     2.7360 C.3          1    LIG   0.0000
   5 N5           2.9252     1.4484     2.6350 N.pl3        1    LIG   0.0000
   6 C6           1.8774     1.8774     1.8774 C.2          1    LIG   0.0000
   7 C7           1.0000     1.0000     1.0000 C.3          1    LIG   0.0000
   8 C8          -0.0543     1.8575     0.3191 C.3          1    LIG   0.0000
   9 C9          -0.9318     0.9800    -0.5584 C.2          1    LIG   0.0000
  10 O10         -0.7258    -0.2004    -0.6232 O.2          1    LIG   0.0000
  11 N11         -1.9580     1.5366    -1.2754 N.am         1    LIG   0.0000
  12 C12         -2.7665     0.7281    -2.0839 C.ar         1    LIG   0.0000
  13 C13         -4.1345     0.6568    -1.8420 C.ar         1    LIG   0.0000
  14 C14         -4.9249    -0.1504    -2.6540 C.ar         1    LIG   0.0000
  15 C15         -4.3446    -0.8737    -3.6915 C.ar         1    LIG   0.0000
  16 C16         -5.2140    -1.7549    -4.5739 C.3          1    LIG   0.0000
  17 C17         -2.9774    -0.8044    -3.9369 C.ar         1    LIG   0.0000
  18 C18         -2.1914     0.0042    -3.1231 C.ar         1    LIG   0.0000
  19 O19         -0.8624     0.0831    -3.3471 O.3          1    LIG   0.0000
  20 N20          1.7463     3.1753     2.0254 N.2          1    LIG   0.0000
  21 C21          2.7176     3.5958     2.8877 C.ar         1    LIG   0.0000
  22 C22          3.0056     4.8696     3.3662 C.ar         1    LIG   0.0000
  23 C23          4.0579     5.0811     4.2514 C.ar         1    LIG   0.0000
  24 S24          4.4181     6.6752     4.8502 S.o2         1    LIG   0.0000
  25 O25          3.2063     7.4510     4.9091 O.2          1    LIG   0.0000
  26 O26          4.9886     6.5753     6.1686 O.2          1    LIG   0.0000
  27 N27          5.5659     7.4612     3.7724 N.3          1    LIG   0.0000
  28 C28          5.0445     7.5128     2.4024 C.3          1    LIG   0.0000
  29 C29          6.2757     7.8758     1.5983 C.3          1    LIG   0.0000
  30 C30          7.4196     7.2392     2.3608 C.3          1    LIG   0.0000
  31 C31          6.7869     6.6633     3.6151 C.3          1    LIG   0.0000
  32 C32          4.8269     3.9946     4.6568 C.ar         1    LIG   0.0000
  33 C33          4.5252     2.7276     4.1688 C.ar         1    LIG   0.0000
  34 C34          3.4719     2.5159     3.2836 C.ar         1    LIG   0.0000
  35 H            6.2841    -2.8516     0.7699 H            1    LIG   0.0000
  36 H            5.5668    -1.7530    -0.2023 H            1    LIG   0.0000
  37 H            6.7404    -1.2849     0.8322 H            1    LIG   0.0000
  38 H            4.1468    -2.2637     1.6398 H            1    LIG   0.0000
  39 H            5.3204    -1.7957     2.6743 H            1    LIG   0.0000
  40 H            5.2114     0.4156     1.7974 H            1    LIG   0.0000
  41 H            4.0378    -0.0524     0.7629 H            1    LIG   0.0000
  42 H            2.6178    -0.5632     2.6050 H            1    LIG   0.0000
  43 H            3.7914    -0.0951     3.6395 H            1    LIG   0.0000
  44 H            0.5521     0.3064     1.5642 H            1    LIG   0.0000
  45 H            1.5642     0.5521     0.3064 H            1    LIG   0.0000
  46 H           -0.6184     2.3055     1.0127 H            1    LIG   0.0000
  47 H            0.3937     2.5511    -0.2450 H            1    LIG   0.0000
  48 H           -2.1296     2.5203    -1.2214 H            1    LIG   0.0000
  49 H           -4.5444     1.1789    -1.0942 H            1    LIG   0.0000
  50 H           -5.9099    -0.2108    -2.4920 H            1    LIG   0.0000
  51 H           -6.1649    -1.6959    -4.2702 H            1    LIG   0.0000
  52 H           -5.1472    -1.4459    -5.5226 H            1    LIG   0.0000
  53 H           -4.9016    -2.7027    -4.5093 H            1    LIG   0.0000
  54 H           -2.5671    -1.3263    -4.6848 H            1    LIG   0.0000
  55 H           -0.4496    -0.4376    -4.0944 H            1    LIG   0.0000
  56 H            2.4481     5.6450     3.0695 H            1    LIG   0.0000
  57 H            4.3346     8.2112     2.3118 H            1    LIG   0.0000
  58 H            4.6776     6.6260     2.1215 H            1    LIG   0.0000
  59 H            6.3892     8.8682     1.5522 H            1    LIG   0.0000
  60 H            6.2165     7.5037     0.6720 H            1    LIG   0.0000
  61 H            7.8438     6.5149     1.8173 H            1    LIG   0.0000
  62 H            8.1080     7.9247     2.5979 H            1    LIG   0.0000
  63 H            6.5691     5.6948     3.4944 H            1    LIG   0.0000
  64 H            7.3911     6.7733     4.4043 H            1    LIG   0.0000
  65 H            5.5882     4.1234     5.2923 H            1    LIG   0.0000
  66 H            5.0794     1.9483     4.4614 H            1    LIG   0.0000
@<TRIPOS>BOND
   1        1        2 1
   2        2        3 1
   3        3        4 1
   4        4        5 1
   5        5        6 1
   6        6        7 1
   7        7        8 1
   8        8        9 1
   9        9       10 2
  10        9       11 am
  11       11       12 1
  12       12       13 ar
  13       13       14 ar
  14       14       15 ar
  15       15       16 1
  16       15       17 ar
  17       17       18 ar
  18       18       12 ar
  19       18       19 1
  20        6       20 2
  21       20       21 1
  22       21       22 ar
  23       22       23 ar
  24       23       24 1
  25       24       25 2
  26       24       26 2
  27       24       27 1
  28       27       28 1
  29       28       29 1
  30       29       30 1
  31       30       31 1
  32       31       27 1
  33       23       32 ar
  34       32       33 ar
  35       33       34 ar
  36       34       21 ar
  37       34        5 1
  38        1       35 1
  39        1       36 1
  40        1       37 1
  41        2       38 1
  42        2       39 1
  43        3       40 1
  44        3       41 1
  45        4       42 1
  46        4       43 1
  47        7       44 1
  48        7       45 1
  49        8       46 1
  50        8       47 1
  51       11       48 1
  52       13       49 1
  53       14       50 1
  54       16       51 1
  55       16       52 1
  56       16       53 1
  57       17       54 1
  58       19       55 1
  59       22       56 1
  60       28       57 1
  61       28       58 1
  62       29       59 1
  63       29       60 1
  64       30       61 1
  65       30       62 1
  66       31       63 1
  67       31       64 1
  68       32       65 1
  69       33       66 1

@<TRIPOS>MOLECULE

  66   69
SMALL
USER_CHARGES
@<TRIPOS>ATOM
   1 C1           2.4191    -2.7727     5.1190 C.3          1    LIG   0.0000
   2 C2           3.1457    -2.0766     3.9797 C.3          1    LIG   0.0000
   3 C3           2.6643    -0.6386     3.8753 C.3          1    LIG   0.0000
   4 C4           3.3909     0.0575     2.7360 C.3          1    LIG   0.0000
   5 N5           2.9252     1.4484     2.6350 N.pl3        1    LIG   0.0000
   6 C6           1.8774     1.8774     1.8774 C.2          1    LIG   0.0000
   7 C7           1.0000     1.0000     1.0000 C.3          1    LIG   0.0000
   8 C8          -0.0543     1.8575     0.3191 C.3          1    LIG   0.0000
   9 C9          -0.9318     0.9800    -0.5584 C.2          1    LIG   0.0000
  10 O10         -0.7258    -0.2004    -0.6232 O.2          1    LIG   0.0000
  11 N11         -1.9580     1.5366    -1.2754 N.am         1    LIG   0.0000
  12 C12         -2.7665     0.7281    -2.0839 C.ar         1    LIG   0.0000
  13 C13         -4.1345     0.6568    -1.8420 C.ar         1    LIG   0.0000
  14 C14         -4.9249    -0.1504    -2.6540 C.ar         1    LIG   0.0000
  15 C15         -4.3446    -0.8737    -3.6915 C.ar         1    LIG   0.0000
  16 C16         -5.2140    -1.7549    -4.5739 C.3          1    LIG   0.0000
  17 C17         -2.9774    -0.8044    -3.9369 C.ar         1    LIG   0.0000
  18 C18         -2.1914     0.0042    -3.1231 C.ar         1    LIG   0.0000
  19 O19         -0.8624     0.0831    -3.3471 O.3          1    LIG   0.0000
  20 N20          1.7463     3.1753     2.0254 N.2          1    LIG   0.0000
  21 C21          2.7176     3.5958     2.8877 C.ar         1    LIG   0.0000
  22 C22          3.0056     4.8696     3.3662 C.ar         1    LIG   0.0000
  23 C23          4.0579     5.0811     4.2514 C.ar         1    LIG   0.0000
  24 S24          4.4181     6.6752     4.8502 S.o2         1    LIG   0.0000
  25 O25          3.2063     7.4510     4.9091 O.2          1    LIG   0.0000
  26 O26          4.9886     6.5753     6.1686 O.2          1    LIG   0.0000
  27 N27          5.5666     7.4616     3.7718 N.3          1    LIG   0.0000
  28 C28          5.0553     7.5195     2.3956 C.3          1    LIG   0.0000
  29 C29          5.9161     8.5634     1.7167 C.3          1    LIG   0.0000
  30 C30          6.3513     9.4742     2.8431 C.3          1    LIG   0.0000
  31 C31          5.6931     8.8909     4.0785 C.3          1    LIG   0.0000
  32 C32          4.8269     3.9946     4.6568 C.ar         1    LIG   0.0000
  33 C33          4.5252     2.7276     4.1688 C.ar         1    LIG   0.0000
  34 C34          3.4719     2.5159     3.2836 C.ar         1    LIG   0.0000
  35 H            2.7358    -3.7187     5.1877 H            1    LIG   0.0000
  36 H            2.6085    -2.2946     5.9766 H            1    LIG   0.0000
  37 H            1.4349    -2.7626     4.9421 H            1    LIG   0.0000
  38 H            4.1299    -2.0866     4.1566 H            1    LIG   0.0000
  39 H            2.9562    -2.5546     3.1221 H            1    LIG   0.0000
  40 H            1.6801    -0.6286     3.6984 H            1    LIG   0.0000
  41 H            2.8537    -0.1605     4.7329 H            1    LIG   0.0000
  42 H            4.3750     0.0475     2.9129 H            1    LIG   0.0000
  43 H            3.2014    -0.4206     1.8784 H            1    LIG   0.0000
  44 H            0.5521     0.3064     1.5642 H            1    LIG   0.0000
  45 H            1.5642     0.5521     0.3064 H            1    LIG   0.0000
  46 H           -0.6184     2.3055     1.0127 H            1    LIG   0.0000
  47 H            0.3937     2.5511    -0.2450 H            1    LIG   0.0000
  48 H           -2.1296     2.5203    -1.2214 H            1    LIG   0.0000
  49 H           -4.5444     1.1789    -1.0942 H            1    LIG   0.0000
  50 H           -5.9099    -0.2108    -2.4920 H            1    LIG   0.0000
  51 H           -6.1649    -1.6959    -4.2702 H            1    LIG   0.0000
  52 H           -5.1472    -1.4459    -5.5226 H            1    LIG   0.0000
  53 H           -4.9016    -2.7027    -4.5093 H            1    LIG   0.0000
  54 H           -2.5671    -1.3263    -4.6848 H            1    LIG   0.0000
  55 H           -0.4496    -0.4376    -4.0944 H            1    LIG   0.0000
  56 H            2.4481     5.6450     3.0695 H            1    LIG   0.0000
  57 H            4.0937     7.7937     2.3867 H            1    LIG   0.0000
  58 H            5.1530     6.6324     1.9443 H            1    LIG   0.0000
  59 H            5.3882     9.0697     1.0348 H            1    LIG   0.0000
  60 H            6.7080     8.1392     1.2774 H            1    LIG   0.0000
  61 H            7.3468     9.4692     2.9372 H            1    LIG   0.0000
  62 H            6.0363    10.4097     2.6830 H            1    LIG   0.0000
  63 H            6.2654     9.0319     4.8863 H            1    LIG   0.0000
  64 H            4.7946     9.3028     4.2306 H            1    LIG   0.0000
  65 H            5.5882     4.1234     5.2923 H            1    LIG   0.0000
  66 H            5.0794     1.9483     4.4614 H            1    LIG   0.0000
@<TRIPOS>BOND
   1        1        2 1
   2        2        3 1
   3        3        4 1
   4        4        5 1
   5        5        6 1
   6        6        7 1
   7        7        8 1
   8        8        9 1
   9        9       10 2
  10        9       11 am
  11       11       12 1
  12       12       13 ar
  13       13       14 ar
  14       14       15 ar
  15       15       16 1
  16       15       17 ar
  17       17       18 ar
  18       18       12 ar
  19       18       19 1
  20        6       20 2
  21       20       21 1
  22       21       22 ar
  23       22       23 ar
  24       23       24 1
  25       24       25 2
  26       24       26 2
  27       24       27 1
  28       27       28 1
  29       28       29 1
  30       29       30 1
  31       30       31 1
  32       31       27 1
  33       23       32 ar
  34       32       33 ar
  35       33       34 ar
  36       34       21 ar
  37       34        5 1
  38        1       35 1
  39        1       36 1
  40        1       37 1
  41        2       38 1
  42        2       39 1
  43        3       40 1
  44        3       41 1
  45        4       42 1
  46        4       43 1
  47        7       44 1
  48        7       45 1
  49        8       46 1
  50        8       47 1
  51       11       48 1
  52       13       49 1
  53       14       50 1
  54       16       51 1
  55       16       52 1
  56       16       53 1
  57       17       54 1
  58       19       55 1
  59       22       56 1
  60       28       57 1
  61       28       58 1
  62       29       59 1
  63       29       60 1
  64       30       61 1
  65       30       62 1
  66       31       63 1
  67       31       64 1
  68       32       65 1
  69       33       66 1

@<TRIPOS>MOLECULE

  66   69
SMALL
USER_CHARGES
@<TRIPOS>ATOM
   1 C1           0.0826    -1.4528     6.1331 C.3          1    LIG   0.0000
   2 C2          -0.2885    -0.1355     5.4716 C.3          1    LIG   0.0000
   3 C3           0.8861     0.3662     4.6475 C.3          1    LIG   0.0000
   4 C4           0.5150     1.6834     3.9860 C.3          1    LIG   0.0000
   5 N5           1.6511     2.1687     3.1888 N.pl3        1    LIG   0.0000
   6 C6           1.8774     1.8774     1.8774 C.2          1    LIG   0.0000
   7 C7           1.0000     1.0000     1.0000 C.3          1    LIG   0.0000
   8 C8          -0.0543     1.8575     0.3191 C.3          1    LIG   0.0000
   9 C9          -0.9318     0.9800    -0.5584 C.2          1    LIG   0.0000
  10 O10         -0.7258    -0.2004    -0.6232 O.2          1    LIG   0.0000
  11 N11         -1.9580     1.5366    -1.2754 N.am         1    LIG   0.0000
  12 C12         -2.7665     0.7281    -2.0839 C.ar         1    LIG   0.0000
  13 C13         -2.2361    -0.4196    -2.6640 C.ar         1    LIG   0.0000
  14 C14         -3.0517    -1.2132    -3.4644 C.ar         1    LIG   0.0000
  15 C15         -4.3793    -0.8540    -3.6764 C.ar         1    LIG   0.0000
  16 C16         -5.2645    -1.7248    -4.5535 C.3          1    LIG   0.0000
  17 C17         -4.9133     0.2923    -3.0977 C.ar         1    LIG   0.0000
  18 C18         -4.0944     1.0821    -2.2979 C.ar         1    LIG   0.0000
  19 O19         -4.5964     2.1984    -1.7284 O.3          1    LIG   0.0000
  20 N20          2.9796     2.4768     1.4907 N.2          1    LIG   0.0000
  21 C21          3.4759     3.1653     2.5600 C.ar         1    LIG   0.0000
  22 C22          4.6152     3.9553     2.6709 C.ar         1    LIG   0.0000
  23 C23          4.9425     4.5752     3.8728 C.ar         1    LIG   0.0000
  24 S24          6.3682     5.5640     4.0113 S.o2         1    LIG   0.0000
  25 O25          6.8664     5.5014     5.3610 O.2          1    LIG   0.0000
  26 O26          7.3772     5.0812     3.1044 O.2          1    LIG   0.0000
  27 N27          5.9676     7.2310     3.6102 N.3          1    LIG   0.0000
  28 C28          4.8875     7.7424     4.4649 C.3          1    LIG   0.0000
  29 C29          4.9597     9.2461     4.3054 C.3          1    LIG   0.0000
  30 C30          6.4090     9.5132     3.9647 C.3          1    LIG   0.0000
  31 C31          7.0590     8.1431     3.9709 C.3          1    LIG   0.0000
  32 C32          4.1105     4.3946     4.9733 C.ar         1    LIG   0.0000
  33 C33          2.9751     3.6014     4.8451 C.ar         1    LIG   0.0000
  34 C34          2.6472     2.9818     3.6424 C.ar         1    LIG   0.0000
  35 H           -0.6901    -1.7828     6.6753 H            1    LIG   0.0000
  36 H            0.3086    -2.1269     5.4299 H            1    LIG   0.0000
  37 H            0.8736    -1.3152     6.7293 H            1    LIG   0.0000
  38 H           -1.0794    -0.2731     4.8754 H            1    LIG   0.0000
  39 H           -0.5144     0.5386     6.1748 H            1    LIG   0.0000
  40 H            1.6770     0.5038     5.2437 H            1    LIG   0.0000
  41 H            1.1120    -0.3080     3.9443 H            1    LIG   0.0000
  42 H           -0.2759     1.5458     3.3898 H            1    LIG   0.0000
  43 H            0.2891     2.3575     4.6892 H            1    LIG   0.0000
  44 H            0.5521     0.3064     1.5642 H            1    LIG   0.0000
  45 H            1.5642     0.5521     0.3064 H            1    LIG   0.0000
  46 H           -0.6184     2.3055     1.0127 H            1    LIG   0.0000
  47 H            0.3937     2.5511    -0.2450 H            1    LIG   0.0000
  48 H           -2.1296     2.5203    -1.2214 H            1    LIG   0.0000
  49 H           -1.2810    -0.6711    -2.5076 H            1    LIG   0.0000
  50 H           -2.6841    -2.0414    -3.8873 H            1    LIG   0.0000
  51 H           -4.7362    -2.5040    -4.8908 H            1    LIG   0.0000
  52 H           -6.0417    -2.0557    -4.0183 H            1    LIG   0.0000
  53 H           -5.5978    -1.1876    -5.3282 H            1    LIG   0.0000
  54 H           -5.8685     0.5441    -3.2538 H            1    LIG   0.0000
  55 H           -5.5513     2.4524    -1.8827 H            1    LIG   0.0000
  56 H            5.2078     4.0796     1.8751 H            1    LIG   0.0000
  57 H            5.0367     7.4802     5.4183 H            1    LIG   0.0000
  58 H            4.0005     7.3964     4.1590 H            1    LIG   0.0000
  59 H            4.7047     9.7057     5.1561 H            1    LIG   0.0000
  60 H            4.3593     9.5538     3.5673 H            1    LIG   0.0000
  61 H            6.4877     9.9377     3.0627 H            1    LIG   0.0000
  62 H            6.8297    10.1071     4.6505 H            1    LIG   0.0000
  63 H            7.7976     8.0970     3.2984 H            1    LIG   0.0000
  64 H            7.4196     7.9248     4.8777 H            1    LIG   0.0000
  65 H            4.3264     4.8304     5.8470 H            1    LIG   0.0000
  66 H            2.3788     3.4729     5.6375 H            1    LIG   0.0000
@<TRIPOS>BOND
   1        1        2 1
   2        2        3 1
   3        3        4 1
   4        4        5 1
   5        5        6 1
   6        6        7 1
   7        7        8 1
   8        8        9 1
   9        9       10 2
  10        9       11 am
  11       11       12 1
  12       12       13 ar
  13       13       14 ar
  14       14       15 ar
  15       15       16 1
  16       15       17 ar
  17       17       18 ar
  18       18       12 ar
  19       18       19 1
  20        6       20 2
  21       20       21 1
  22       21       22 ar
  23       22       23 ar
  24       23       24 1
  25       24       25 2
  26       24       26 2
  27       24       27 1
  28       27       28 1
  29       28       29 1
  30       29       30 1
  31       30       31 1
  32       31       27 1
  33       23       32 ar
  34       32       33 ar
  35       33       34 ar
  36       34       21 ar
  37       34        5 1
  38        1       35 1
  39        1       36 1
  40        1       37 1
  41        2       38 1
  42        2       39 1
  43        3       40 1
  44        3       41 1
  45        4       42 1
  46        4       43 1
  47        7       44 1
  48        7       45 1
  49        8       46 1
  50        8       47 1
  51       11       48 1
  52       13       49 1
  53       14       50 1
  54       16       51 1
  55       16       52 1
  56       16       53 1
  57       17       54 1
  58       19       55 1
  59       22       56 1
  60       28       57 1
  61       28       58 1
  62       29       59 1
  63       29       60 1
  64       30       61 1
  65       30       62 1
  66       31       63 1
  67       31       64 1
  68       32       65 1
  69       33       66 1

@<TRIPOS>MOLECULE

  66   69
SMALL
USER_CHARGES
@<TRIPOS>ATOM
   1 C1           0.0826    -1.4528     6.1331 C.3          1    LIG   0.0000
   2 C2          -0.2885    -0.1355     5.4716 C.3          1    LIG   0.0000
   3 C3           0.8861     0.3662     4.6475 C.3          1    LIG   0.0000
   4 C4           0.5150     1.6834     3.9860 C.3          1    LIG   0.0000
   5 N5           1.6511     2.1687     3.1888 N.pl3        1    LIG   0.0000
   6 C6           1.8774     1.8774     1.8774 C.2          1    LIG   0.0000
   7 C7           1.0000     1.0000     1.0000 C.3          1    LIG   0.0000
   8 C8          -0.0543     1.8575     0.3191 C.3          1    LIG   0.0000
   9 C9          -0.9318     0.9800    -0.5584 C.2          1    LIG   0.0000
  10 O10         -0.7258    -0.2004    -0.6232 O.2          1    LIG   0.0000
  11 N11         -1.9580     1.5366    -1.2754 N.am         1    LIG   0.0000
  12 C12         -2.7665     0.7281    -2.0839 C.ar         1    LIG   0.0000
  13 C13         -2.2361    -0.4196    -2.6640 C.ar         1    LIG   0.0000
  14 C14         -3.0517    -1.2132    -3.4644 C.ar         1    LIG   0.0000
  15 C15         -4.3793    -0.8540    -3.6764 C.ar         1    LIG   0.0000
  16 C16         -5.2645    -1.7248    -4.5535 C.3          1    LIG   0.0000
  17 C17         -4.9133     0.2923    -3.0977 C.ar         1    LIG   0.0000
  18 C18         -4.0944     1.0821    -2.2979 C.ar         1    LIG   0.0000
  19 O19         -4.5964     2.1984    -1.7284 O.3          1    LIG   0.0000
  20 N20          2.9796     2.4768     1.4907 N.2          1    LIG   0.0000
  21 C21          3.4759     3.1653     2.5600 C.ar         1    LIG   0.0000
  22 C22          4.6152     3.9553     2.6709 C.ar         1    LIG   0.0000
  23 C23          4.9425     4.5752     3.8728 C.ar         1    LIG   0.0000
  24 S24          6.3682     5.5640     4.0113 S.o2         1    LIG   0.0000
  25 O25          6.6564     6.1719     2.7381 O.2          1    LIG   0.0000
  26 O26          6.1456     6.5921     4.9947 O.2          1    LIG   0.0000
  27 N27          7.7295     4.5644     4.5056 N.3          1    LIG   0.0000
  28 C28          7.9371     3.4612     3.5615 C.3          1    LIG   0.0000
  29 C29          8.8742     2.5494     4.3261 C.3          1    LIG   0.0000
  30 C30          8.4897     2.7525     5.7774 C.3          1    LIG   0.0000
  31 C31          7.4483     3.8572     5.7598 C.3          1    LIG   0.0000
  32 C32          4.1105     4.3946     4.9733 C.ar         1    LIG   0.0000
  33 C33          2.9751     3.6014     4.8451 C.ar         1    LIG   0.0000
  34 C34          2.6472     2.9818     3.6424 C.ar         1    LIG   0.0000
  35 H           -0.6901    -1.7828     6.6753 H            1    LIG   0.0000
  36 H            0.3086    -2.1269     5.4299 H            1    LIG   0.0000
  37 H            0.8736    -1.3152     6.7293 H            1    LIG   0.0000
  38 H           -1.0794    -0.2731     4.8754 H            1    LIG   0.0000
  39 H           -0.5144     0.5386     6.1748 H            1    LIG   0.0000
  40 H            1.6770     0.5038     5.2437 H            1    LIG   0.0000
  41 H            1.1120    -0.3080     3.9443 H            1    LIG   0.0000
  42 H           -0.2759     1.5458     3.3898 H            1    LIG   0.0000
  43 H            0.2891     2.3575     4.6892 H            1    LIG   0.0000
  44 H            0.5521     0.3064     1.5642 H            1    LIG   0.0000
  45 H            1.5642     0.5521     0.3064 H            1    LIG   0.0000
  46 H           -0.6184     2.3055     1.0127 H            1    LIG   0.0000
  47 H            0.3937     2.5511    -0.2450 H            1    LIG   0.0000
  48 H           -2.1296     2.5203    -1.2214 H            1    LIG   0.0000
  49 H           -1.2810    -0.6711    -2.5076 H            1    LIG   0.0000
  50 H           -2.6841    -2.0414    -3.8873 H            1    LIG   0.0000
  51 H           -4.7362    -2.5040    -4.8908 H            1    LIG   0.0000
  52 H           -6.0417    -2.0557    -4.0183 H            1    LIG   0.0000
  53 H           -5.5978    -1.1876    -5.3282 H            1    LIG   0.0000
  54 H           -5.8685     0.5441    -3.2538 H            1    LIG   0.0000
  55 H           -5.5513     2.4524    -1.8827 H            1    LIG   0.0000
  56 H            5.2078     4.0796     1.8751 H            1    LIG   0.0000
  57 H            8.3586     3.7847     2.7144 H            1    LIG   0.0000
  58 H            7.0757     2.9993     3.3501 H            1    LIG   0.0000
  59 H            9.8271     2.8106     4.1719 H            1    LIG   0.0000
  60 H            8.7417     1.5963     4.0543 H            1    LIG   0.0000
  61 H            8.1041     1.9126     6.1593 H            1    LIG   0.0000
  62 H            9.2856     3.0289     6.3161 H            1    LIG   0.0000
  63 H            6.5232     3.4776     5.7576 H            1    LIG   0.0000
  64 H            7.5573     4.4651     6.5463 H            1    LIG   0.0000
  65 H            4.3264     4.8304     5.8470 H            1    LIG   0.0000
  66 H            2.3788     3.4729     5.6375 H            1    LIG   0.0000
@<TRIPOS>BOND
   1        1        2 1
   2        2        3 1
   3        3        4 1
   4        4        5 1
   5        5        6 1
   6        6        7 1
   7        7        8 1
   8        8        9 1
   9        9       10 2
  10        9       11 am
  11       11       12 1
  12       12       13 ar
  13       13       14 ar
  14       14       15 ar
  15       15       16 1
  16       15       17 ar
  17       17       18 ar
  18       18       12 ar
  19       18       19 1
  20        6       20 2
  21       20       21 1
  22       21       22 ar
  23       22       23 ar
  24       23       24 1
  25       24       25 2
  26       24       26 2
  27       24       27 1
  28       27       28 1
  29       28       29 1
  30       29       30 1
  31       30       31 1
  32       31       27 1
  33       23       32 ar
  34       32       33 ar
  35       33       34 ar
  36       34       21 ar
  37       34        5 1
  38        1       35 1
  39        1       36 1
  40        1       37 1
  41        2       38 1
  42        2       39 1
  43        3       40 1
  44        3       41 1
  45        4       42 1
  46        4       43 1
  47        7       44 1
  48        7       45 1
  49        8       46 1
  50        8       47 1
  51       11       48 1
  52       13       49 1
  53       14       50 1
  54       16       51 1
  55       16       52 1
  56       16       53 1
  57       17       54 1
  58       19       55 1
  59       22       56 1
  60       28       57 1
  61       28       58 1
  62       29       59 1
  63       29       60 1
  64       30       61 1
  65       30       62 1
  66       31       63 1
  67       31       64 1
  68       32       65 1
  69       33       66 1

@<TRIPOS>MOLECULE

  66   69
SMALL
USER_CHARGES
@<TRIPOS>ATOM
   1 C1          -2.9678     3.1473     4.5859 C.3          1    LIG   0.0000
   2 C2          -1.8137     2.1645     4.6980 C.3          1    LIG   0.0000
   3 C3          -0.6391     2.6662     3.8739 C.3          1    LIG   0.0000
   4 C4           0.5150     1.6834     3.9860 C.3          1    LIG   0.0000
   5 N5           1.6511     2.1687     3.1888 N.pl3        1    LIG   0.0000
   6 C6           1.8774     1.8774     1.8774 C.2          1    LIG   0.0000
   7 C7           1.0000     1.0000     1.0000 C.3          1    LIG   0.0000
   8 C8          -0.0543     1.8575     0.3191 C.3          1    LIG   0.0000
   9 C9          -0.9318     0.9800    -0.5584 C.2          1    LIG   0.0000
  10 O10         -0.7258    -0.2004    -0.6232 O.2          1    LIG   0.0000
  11 N11         -1.9580     1.5366    -1.2754 N.am         1    LIG   0.0000
  12 C12         -2.7665     0.7281    -2.0839 C.ar         1    LIG   0.0000
  13 C13         -2.2361    -0.4196    -2.6640 C.ar         1    LIG   0.0000
  14 C14         -3.0517    -1.2132    -3.4644 C.ar         1    LIG   0.0000
  15 C15         -4.3793    -0.8540    -3.6764 C.ar         1    LIG   0.0000
  16 C16         -5.2645    -1.7248    -4.5535 C.3          1    LIG   0.0000
  17 C17         -4.9133     0.2923    -3.0977 C.ar         1    LIG   0.0000
  18 C18         -4.0944     1.0821    -2.2979 C.ar         1    LIG   0.0000
  19 O19         -4.5964     2.1984    -1.7284 O.3          1    LIG   0.0000
  20 N20          2.9796     2.4768     1.4907 N.2          1    LIG   0.0000
  21 C21          3.4759     3.1653     2.5600 C.ar         1    LIG   0.0000
  22 C22          4.6152     3.9553     2.6709 C.ar         1    LIG   0.0000
  23 C23          4.9425     4.5752     3.8728 C.ar         1    LIG   0.0000
  24 S24          6.3682     5.5640     4.0113 S.o2         1    LIG   0.0000
  25 O25          6.8664     5.5014     5.3610 O.2          1    LIG   0.0000
  26 O26          7.3772     5.0812     3.1044 O.2          1    LIG   0.0000
  27 N27          5.9678     7.2300     3.6105 N.3          1    LIG   0.0000
  28 C28          4.8890     7.7290     4.4698 C.3          1    LIG   0.0000
  29 C29          4.4606     8.9936     3.7547 C.3          1    LIG   0.0000
  30 C30          4.7074     8.6950     2.2900 C.3          1    LIG   0.0000
  31 C31          5.3771     7.3325     2.2715 C.3          1    LIG   0.0000
  32 C32          4.1105     4.3946     4.9733 C.ar         1    LIG   0.0000
  33 C33          2.9751     3.6014     4.8451 C.ar         1    LIG   0.0000
  34 C34          2.6472     2.9818     3.6424 C.ar         1    LIG   0.0000
  35 H           -3.7405     2.8172     5.1281 H            1    LIG   0.0000
  36 H           -2.6785     4.0414     4.9277 H            1    LIG   0.0000
  37 H           -3.2436     3.2297     3.6282 H            1    LIG   0.0000
  38 H           -1.5379     2.0820     5.6557 H            1    LIG   0.0000
  39 H           -2.1029     1.2703     4.3563 H            1    LIG   0.0000
  40 H           -0.9149     2.7486     2.9162 H            1    LIG   0.0000
  41 H           -0.3499     3.5603     4.2156 H            1    LIG   0.0000
  42 H            0.7908     1.6010     4.9437 H            1    LIG   0.0000
  43 H            0.2258     0.7892     3.6442 H            1    LIG   0.0000
  44 H            0.5521     0.3064     1.5642 H            1    LIG   0.0000
  45 H            1.5642     0.5521     0.3064 H            1    LIG   0.0000
  46 H           -0.6184     2.3055     1.0127 H            1    LIG   0.0000
  47 H            0.3937     2.5511    -0.2450 H            1    LIG   0.0000
  48 H           -2.1296     2.5203    -1.2214 H            1    LIG   0.0000
  49 H           -1.2810    -0.6711    -2.5076 H            1    LIG   0.0000
  50 H           -2.6841    -2.0414    -3.8873 H            1    LIG   0.0000
  51 H           -4.7362    -2.5040    -4.8908 H            1    LIG   0.0000
  52 H           -6.0417    -2.0557    -4.0183 H            1    LIG   0.0000
  53 H           -5.5978    -1.1876    -5.3282 H            1    LIG   0.0000
  54 H           -5.8685     0.5441    -3.2538 H            1    LIG   0.0000
  55 H           -5.5513     2.4524    -1.8827 H            1    LIG   0.0000
  56 H            5.2078     4.0796     1.8751 H            1    LIG   0.0000
  57 H            5.2237     7.9299     5.3905 H            1    LIG   0.0000
  58 H            4.1371     7.0720     4.5245 H            1    LIG   0.0000
  59 H            5.0094     9.7738     4.0548 H            1    LIG   0.0000
  60 H            3.4928     9.1836     3.9196 H            1    LIG   0.0000
  61 H            3.8437     8.6685     1.7868 H            1    LIG   0.0000
  62 H            5.3070     9.3864     1.8870 H            1    LIG   0.0000
  63 H            4.7072     6.6059     2.1187 H            1    LIG   0.0000
  64 H            6.0827     7.2895     1.5642 H            1    LIG   0.0000
  65 H            4.3264     4.8304     5.8470 H            1    LIG   0.0000
  66 H            2.3788     3.4729     5.6375 H            1    LIG   0.0000
@<TRIPOS>BOND
   1        1        2 1
   2        2        3 1
   3        3        4 1
   4        4        5 1
   5        5        6 1
   6        6        7 1
   7        7        8 1
   8        8        9 1
   9        9       10 2
  10        9       11 am
  11       11       12 1
  12       12       13 ar
  13       13       14 ar
  14       14       15 ar
  15       15       16 1
  16       15       17 ar
  17       17       18 ar
  18       18       12 ar
  19       18       19 1
  20        6       20 2
  21       20       21 1
  22       21       22 ar
  23       22       23 ar
  24       23       24 1
  25       24       25 2
  26       24       26 2
  27       24       27 1
  28       27       28 1
  29       28       29 1
  30       29       30 1
  31       30       31 1
  32       31       27 1
  33       23       32 ar
  34       32       33 ar
  35       33       34 ar
  36       34       21 ar
  37       34        5 1
  38        1       35 1
  39        1       36 1
  40        1       37 1
  41        2       38 1
  42        2       39 1
  43        3       40 1
  44        3       41 1
  45        4       42 1
  46        4       43 1
  47        7       44 1
  48        7       45 1
  49        8       46 1
  50        8       47 1
  51       11       48 1
  52       13       49 1
  53       14       50 1
  54       16       51 1
  55       16       52 1
  56       16       53 1
  57       17       54 1
  58       19       55 1
  59       22       56 1
  60       28       57 1
  61       28       58 1
  62       29       59 1
  63       29       60 1
  64       30       61 1
  65       30       62 1
  66       31       63 1
  67       31       64 1
  68       32       65 1
  69       33       66 1

@<TRIPOS>MOLECULE

  66   69
SMALL
USER_CHARGES
@<TRIPOS>ATOM
   1 C1          -2.9678     3.1473     4.5859 C.3          1    LIG   0.0000
   2 C2          -1.8137     2.1645     4.6980 C.3          1    LIG   0.0000
   3 C3          -0.6391     2.6662     3.8739 C.3          1    LIG   0.0000
   4 C4           0.5150     1.6834     3.9860 C.3          1    LIG   0.0000
   5 N5           1.6511     2.1687     3.1888 N.pl3        1    LIG   0.0000
   6 C6           1.8774     1.8774     1.8774 C.2          1    LIG   0.0000
   7 C7           1.0000     1.0000     1.0000 C.3          1    LIG   0.0000
   8 C8          -0.0543     1.8575     0.3191 C.3          1    LIG   0.0000
   9 C9          -0.9318     0.9800    -0.5584 C.2          1    LIG   0.0000
  10 O10         -0.7258    -0.2004    -0.6232 O.2          1    LIG   0.0000
  11 N11         -1.9580     1.5366    -1.2754 N.am         1    LIG   0.0000
  12 C12         -2.7665     0.7281    -2.0839 C.ar         1    LIG   0.0000
  13 C13         -4.1345     0.6568    -1.8420 C.ar         1    LIG   0.0000
  14 C14         -4.9249    -0.1504    -2.6540 C.ar         1    LIG   0.0000
  15 C15         -4.3446    -0.8737    -3.6915 C.ar         1    LIG   0.0000
  16 C16         -5.2140    -1.7549    -4.5739 C.3          1    LIG   0.0000
  17 C17         -2.9774    -0.8044    -3.9369 C.ar         1    LIG   0.0000
  18 C18         -2.1914     0.0042    -3.1231 C.ar         1    LIG   0.0000
  19 O19         -0.8624     0.0831    -3.3471 O.3          1    LIG   0.0000
  20 N20          2.9796     2.4768     1.4907 N.2          1    LIG   0.0000
  21 C21          3.4759     3.1653     2.5600 C.ar         1    LIG   0.0000
  22 C22          4.6152     3.9553     2.6709 C.ar         1    LIG   0.0000
  23 C23          4.9425     4.5752     3.8728 C.ar         1    LIG   0.0000
  24 S24          6.3682     5.5640     4.0113 S.o2         1    LIG   0.0000
  25 O25          6.8664     5.5014     5.3610 O.2          1    LIG   0.0000
  26 O26          7.3772     5.0812     3.1044 O.2          1    LIG   0.0000
  27 N27          5.9678     7.2300     3.6105 N.3          1    LIG   0.0000
  28 C28          4.8890     7.7290     4.4698 C.3          1    LIG   0.0000
  29 C29          4.4606     8.9936     3.7547 C.3          1    LIG   0.0000
  30 C30          4.7074     8.6950     2.2900 C.3          1    LIG   0.0000
  31 C31          5.3771     7.3325     2.2715 C.3          1    LIG   0.0000
  32 C32          4.1105     4.3946     4.9733 C.ar         1    LIG   0.0000
  33 C33          2.9751     3.6014     4.8451 C.ar         1    LIG   0.0000
  34 C34          2.6472     2.9818     3.6424 C.ar         1    LIG   0.0000
  35 H           -3.7405     2.8172     5.1281 H            1    LIG   0.0000
  36 H           -2.6785     4.0414     4.9277 H            1    LIG   0.0000
  37 H           -3.2436     3.2297     3.6282 H            1    LIG   0.0000
  38 H           -1.5379     2.0820     5.6557 H            1    LIG   0.0000
  39 H           -2.1029     1.2703     4.3563 H            1    LIG   0.0000
  40 H           -0.9149     2.7486     2.9162 H            1    LIG   0.0000
  41 H           -0.3499     3.5603     4.2156 H            1    LIG   0.0000
  42 H            0.7908     1.6010     4.9437 H            1    LIG   0.0000
  43 H            0.2258     0.7892     3.6442 H            1    LIG   0.0000
  44 H            0.5521     0.3064     1.5642 H            1    LIG   0.0000
  45 H            1.5642     0.5521     0.3064 H            1    LIG   0.0000
  46 H           -0.6184     2.3055     1.0127 H            1    LIG   0.0000
  47 H            0.3937     2.5511    -0.2450 H            1    LIG   0.0000
  48 H           -2.1296     2.5203    -1.2214 H            1    LIG   0.0000
  49 H           -4.5444     1.1789    -1.0942 H            1    LIG   0.0000
  50 H           -5.9099    -0.2108    -2.4920 H            1    LIG   0.0000
  51 H           -6.1649    -1.6959    -4.2702 H            1    LIG   0.0000
  52 H           -5.1472    -1.4459    -5.5226 H            1    LIG   0.0000
  53 H           -4.9016    -2.7027    -4.5093 H            1    LIG   0.0000
  54 H           -2.5671    -1.3263    -4.6848 H            1    LIG   0.0000
  55 H           -0.4496    -0.4376    -4.0944 H            1    LIG   0.0000
  56 H            5.2078     4.0796     1.8751 H            1    LIG   0.0000
  57 H            5.2237     7.9299     5.3905 H            1    LIG   0.0000
  58 H            4.1371     7.0720     4.5245 H            1    LIG   0.0000
  59 H            5.0094     9.7738     4.0548 H            1    LIG   0.0000
  60 H            3.4928     9.1836     3.9196 H            1    LIG   0.0000
  61 H            3.8437     8.6685     1.7868 H            1    LIG   0.0000
  62 H            5.3070     9.3864     1.8870 H            1    LIG   0.0000
  63 H            4.7072     6.6059     2.1187 H            1    LIG   0.0000
  64 H            6.0827     7.2895     1.5642 H            1    LIG   0.0000
  65 H            4.3264     4.8304     5.8470 H            1    LIG   0.0000
  66 H            2.3788     3.4729     5.6375 H            1    LIG   0.0000
@<TRIPOS>BOND
   1        1        2 1
   2        2        3 1
   3        3        4 1
   4        4        5 1
   5        5        6 1
   6        6        7 1
   7        7        8 1
   8        8        9 1
   9        9       10 2
  10        9       11 am
  11       11       12 1
  12       12       13 ar
  13       13       14 ar
  14       14       15 ar
  15       15       16 1
  16       15       17 ar
  17       17       18 ar
  18       18       12 ar
  19       18       19 1
  20        6       20 2
  21       20       21 1
  22       21       22 ar
  23       22       23 ar
  24       23       24 1
  25       24       25 2
  26       24       26 2
  27       24       27 1
  28       27       28 1
  29       28       29 1
  30       29       30 1
  31       30       31 1
  32       31       27 1
  33       23       32 ar
  34       32       33 ar
  35       33       34 ar
  36       34       21 ar
  37       34        5 1
  38        1       35 1
  39        1       36 1
  40        1       37 1
  41        2       38 1
  42        2       39 1
  43        3       40 1
  44        3       41 1
  45        4       42 1
  46        4       43 1
  47        7       44 1
  48        7       45 1
  49        8       46 1
  50        8       47 1
  51       11       48 1
  52       13       49 1
  53       14       50 1
  54       16       51 1
  55       16       52 1
  56       16       53 1
  57       17       54 1
  58       19       55 1
  59       22       56 1
  60       28       57 1
  61       28       58 1
  62       29       59 1
  63       29       60 1
  64       30       61 1
  65       30       62 1
  66       31       63 1
  67       31       64 1
  68       32       65 1
  69       33       66 1

@<TRIPOS>MOLECULE

  66   69
SMALL
USER_CHARGES
@<TRIPOS>ATOM
   1 C1          -2.9678     3.1473     4.5859 C.3          1    LIG   0.0000
   2 C2          -1.8137     2.1645     4.6980 C.3          1    LIG   0.0000
   3 C3          -0.6391     2.6662     3.8739 C.3          1    LIG   0.0000
   4 C4           0.5150     1.6834     3.9860 C.3          1    LIG   0.0000
   5 N5           1.6511     2.1687     3.1888 N.pl3        1    LIG   0.0000
   6 C6           1.8774     1.8774     1.8774 C.2          1    LIG   0.0000
   7 C7           1.0000     1.0000     1.0000 C.3          1    LIG   0.0000
   8 C8          -0.0543     1.8575     0.3191 C.3          1    LIG   0.0000
   9 C9          -0.9318     0.9800    -0.5584 C.2          1    LIG   0.0000
  10 O10         -0.7258    -0.2004    -0.6232 O.2          1    LIG   0.0000
  11 N11         -1.9580     1.5366    -1.2754 N.am         1    LIG   0.0000
  12 C12         -2.7665     0.7281    -2.0839 C.ar         1    LIG   0.0000
  13 C13         -3.4934    -0.3121    -1.5143 C.ar         1    LIG   0.0000
  14 C14         -4.2926    -1.1065    -2.3302 C.ar         1    LIG   0.0000
  15 C15         -4.3563    -0.8559    -3.6975 C.ar         1    LIG   0.0000
  16 C16         -5.2304    -1.7289    -4.5834 C.3          1    LIG   0.0000
  17 C17         -3.6316     0.1835    -4.2706 C.ar         1    LIG   0.0000
  18 C18         -2.8346     0.9753    -3.4510 C.ar         1    LIG   0.0000
  19 O19         -2.1242     1.9885    -3.9908 O.3          1    LIG   0.0000
  20 N20          2.9796     2.4768     1.4907 N.2          1    LIG   0.0000
  21 C21          3.4759     3.1653     2.5600 C.ar         1    LIG   0.0000
  22 C22          4.6152     3.9553     2.6709 C.ar         1    LIG   0.0000
  23 C23          4.9425     4.5752     3.8728 C.ar         1    LIG   0.0000
  24 S24          6.3682     5.5640     4.0113 S.o2         1    LIG   0.0000
  25 O25          6.6564     6.1719     2.7381 O.2          1    LIG   0.0000
  26 O26          6.1456     6.5921     4.9947 O.2          1    LIG   0.0000
  27 N27          7.7304     4.5638     4.5059 N.3          1    LIG   0.0000
  28 C28          7.9484     3.4545     3.5674 C.3          1    LIG   0.0000
  29 C29          9.3517     2.9742     3.8703 C.3          1    LIG   0.0000
  30 C30         10.0513     4.1974     4.4198 C.3          1    LIG   0.0000
  31 C31          8.9993     5.2886     4.3746 C.3          1    LIG   0.0000
  32 C32          4.1105     4.3946     4.9733 C.ar         1    LIG   0.0000
  33 C33          2.9751     3.6014     4.8451 C.ar         1    LIG   0.0000
  34 C34          2.6472     2.9818     3.6424 C.ar         1    LIG   0.0000
  35 H           -3.7405     2.8172     5.1281 H            1    LIG   0.0000
  36 H           -2.6785     4.0414     4.9277 H            1    LIG   0.0000
  37 H           -3.2436     3.2297     3.6282 H            1    LIG   0.0000
  38 H           -1.5379     2.0820     5.6557 H            1    LIG   0.0000
  39 H           -2.1029     1.2703     4.3563 H            1    LIG   0.0000
  40 H           -0.9149     2.7486     2.9162 H            1    LIG   0.0000
  41 H           -0.3499     3.5603     4.2156 H            1    LIG   0.0000
  42 H            0.7908     1.6010     4.9437 H            1    LIG   0.0000
  43 H            0.2258     0.7892     3.6442 H            1    LIG   0.0000
  44 H            0.5521     0.3064     1.5642 H            1    LIG   0.0000
  45 H            1.5642     0.5521     0.3064 H            1    LIG   0.0000
  46 H           -0.6184     2.3055     1.0127 H            1    LIG   0.0000
  47 H            0.3937     2.5511    -0.2450 H            1    LIG   0.0000
  48 H           -2.1296     2.5203    -1.2214 H            1    LIG   0.0000
  49 H           -3.4422    -0.4866    -0.5309 H            1    LIG   0.0000
  50 H           -4.8211    -1.8574    -1.9342 H            1    LIG   0.0000
  51 H           -5.6816    -2.4247    -4.0246 H            1    LIG   0.0000
  52 H           -5.9214    -1.1622    -5.0321 H            1    LIG   0.0000
  53 H           -4.6632    -2.1741    -5.2763 H            1    LIG   0.0000
  54 H           -3.6826     0.3583    -5.2539 H            1    LIG   0.0000
  55 H           -2.1736     2.1657    -4.9737 H            1    LIG   0.0000
  56 H            5.2078     4.0796     1.8751 H            1    LIG   0.0000
  57 H            7.8798     3.7726     2.6218 H            1    LIG   0.0000
  58 H            7.2833     2.7241     3.7225 H            1    LIG   0.0000
  59 H            9.8032     2.6508     3.0387 H            1    LIG   0.0000
  60 H            9.3365     2.2395     4.5485 H            1    LIG   0.0000
  61 H           10.3557     4.0385     5.3591 H            1    LIG   0.0000
  62 H           10.8373     4.4403     3.8513 H            1    LIG   0.0000
  63 H            9.1213     5.9316     5.1307 H            1    LIG   0.0000
  64 H            9.0377     5.7837     3.5065 H            1    LIG   0.0000
  65 H            4.3264     4.8304     5.8470 H            1    LIG   0.0000
  66 H            2.3788     3.4729     5.6375 H            1    LIG   0.0000
@<TRIPOS>BOND
   1        1        2 1
   2        2        3 1
   3        3        4 1
   4        4        5 1
   5        5        6 1
   6        6        7 1
   7        7        8 1
   8        8        9 1
   9        9       10 2
  10        9       11 am
  11       11       12 1
  12       12       13 ar
  13       13       14 ar
  14       14       15 ar
  15       15       16 1
  16       15       17 ar
  17       17       18 ar
  18       18       12 ar
  19       18       19 1
  20        6       20 2
  21       20       21 1
  22       21       22 ar
  23       22       23 ar
  24       23       24 1
  25       24       25 2
  26       24       26 2
  27       24       27 1
  28       27       28 1
  29       28       29 1
  30       29       30 1
  31       30       31 1
  32       31       27 1
  33       23       32 ar
  34       32       33 ar
  35       33       34 ar
  36       34       21 ar
  37       34        5 1
  38        1       35 1
  39        1       36 1
  40        1       37 1
  41        2       38 1
  42        2       39 1
  43        3       40 1
  44        3       41 1
  45        4       42 1
  46        4       43 1
  47        7       44 1
  48        7       45 1
  49        8       46 1
  50        8       47 1
  51       11       48 1
  52       13       49 1
  53       14       50 1
  54       16       51 1
  55       16       52 1
  56       16       53 1
  57       17       54 1
  58       19       55 1
  59       22       56 1
  60       28       57 1
  61       28       58 1
  62       29       59 1
  63       29       60 1
  64       30       61 1
  65       30       62 1
  66       31       63 1
  67       31       64 1
  68       32       65 1
  69       33       66 1

@<TRIPOS>MOLECULE

  66   69
SMALL
USER_CHARGES
@<TRIPOS>ATOM
   1 C1           3.0927     4.6281    -2.9578 C.3          1    LIG   0.0000
   2 C2           3.6535     3.5006    -2.1065 C.3          1    LIG   0.0000
   3 C3           3.0471     3.5670    -0.7143 C.3          1    LIG   0.0000
   4 C4           3.6079     2.4395     0.1369 C.3          1    LIG   0.0000
   5 N5           3.0213     2.5037     1.4836 N.pl3        1    LIG   0.0000
   6 C6           1.8774     1.8774     1.8774 C.2          1    LIG   0.0000
   7 C7           1.0000     1.0000     1.0000 C.3          1    LIG   0.0000
   8 C8          -0.0543     1.8575     0.3191 C.3          1    LIG   0.0000
   9 C9          -0.9318     0.9800    -0.5584 C.2          1    LIG   0.0000
  10 O10         -0.7258    -0.2004    -0.6232 O.2          1    LIG   0.0000
  11 N11         -1.9580     1.5366    -1.2754 N.am         1    LIG   0.0000
  12 C12         -2.7665     0.7281    -2.0839 C.ar         1    LIG   0.0000
  13 C13         -4.1345     0.6568    -1.8420 C.ar         1    LIG   0.0000
  14 C14         -4.9249    -0.1504    -2.6540 C.ar         1    LIG   0.0000
  15 C15         -4.3446    -0.8737    -3.6915 C.ar         1    LIG   0.0000
  16 C16         -5.2140    -1.7549    -4.5739 C.3          1    LIG   0.0000
  17 C17         -2.9774    -0.8044    -3.9369 C.ar         1    LIG   0.0000
  18 C18         -2.1914     0.0042    -3.1231 C.ar         1    LIG   0.0000
  19 O19         -0.8624     0.0831    -3.3471 O.3          1    LIG   0.0000
  20 N20          1.6518     2.1546     3.1407 N.2          1    LIG   0.0000
  21 C21          2.6582     2.9688     3.5741 C.ar         1    LIG   0.0000
  22 C22          2.8791     3.5390     4.8233 C.ar         1    LIG   0.0000
  23 C23          3.9845     4.3518     5.0542 C.ar         1    LIG   0.0000
  24 S24          4.2608     5.0650     6.6177 S.o2         1    LIG   0.0000
  25 O25          4.9528     6.3178     6.4583 O.2          1    LIG   0.0000
  26 O26          2.9980     5.2939     7.2708 O.2          1    LIG   0.0000
  27 N27          5.2377     3.9755     7.5951 N.3          1    LIG   0.0000
  28 C28          6.5029     3.6629     6.9221 C.3          1    LIG   0.0000
  29 C29          7.0120     2.4790     7.7179 C.3          1    LIG   0.0000
  30 C30          5.7542     1.7667     8.1716 C.3          1    LIG   0.0000
  31 C31          4.6103     2.6549     7.7159 C.3          1    LIG   0.0000
  32 C32          4.8751     4.5910     4.0123 C.ar         1    LIG   0.0000
  33 C33          4.6393     4.0129     2.7693 C.ar         1    LIG   0.0000
  34 C34          3.5337     3.1992     2.5385 C.ar         1    LIG   0.0000
  35 H            3.4917     4.5844    -3.8737 H            1    LIG   0.0000
  36 H            2.0991     4.5346    -3.0222 H            1    LIG   0.0000
  37 H            3.3182     5.5070    -2.5375 H            1    LIG   0.0000
  38 H            3.4280     2.6217    -2.5268 H            1    LIG   0.0000
  39 H            4.6471     3.5941    -2.0421 H            1    LIG   0.0000
  40 H            3.2726     4.4459    -0.2940 H            1    LIG   0.0000
  41 H            2.0535     3.4735    -0.7787 H            1    LIG   0.0000
  42 H            3.3824     1.5606    -0.2833 H            1    LIG   0.0000
  43 H            4.6015     2.5330     0.2013 H            1    LIG   0.0000
  44 H            0.5521     0.3064     1.5642 H            1    LIG   0.0000
  45 H            1.5642     0.5521     0.3064 H            1    LIG   0.0000
  46 H           -0.6184     2.3055     1.0127 H            1    LIG   0.0000
  47 H            0.3937     2.5511    -0.2450 H            1    LIG   0.0000
  48 H           -2.1296     2.5203    -1.2214 H            1    LIG   0.0000
  49 H           -4.5444     1.1789    -1.0942 H            1    LIG   0.0000
  50 H           -5.9099    -0.2108    -2.4920 H            1    LIG   0.0000
  51 H           -6.1649    -1.6959    -4.2702 H            1    LIG   0.0000
  52 H           -5.1472    -1.4459    -5.5226 H            1    LIG   0.0000
  53 H           -4.9016    -2.7027    -4.5093 H            1    LIG   0.0000
  54 H           -2.5671    -1.3263    -4.6848 H            1    LIG   0.0000
  55 H           -0.4496    -0.4376    -4.0944 H            1    LIG   0.0000
  56 H            2.2339     3.3621     5.5666 H            1    LIG   0.0000
  57 H            7.1390     4.4329     6.9722 H            1    LIG   0.0000
  58 H            6.3520     3.4170     5.9646 H            1    LIG   0.0000
  59 H            7.5493     2.7849     8.5039 H            1    LIG   0.0000
  60 H            7.5712     1.8804     7.1444 H            1    LIG   0.0000
  61 H            5.6889     0.8642     7.7459 H            1    LIG   0.0000
  62 H            5.7465     1.6672     9.1666 H            1    LIG   0.0000
  63 H            4.2473     2.3487     6.8359 H            1    LIG   0.0000
  64 H            3.8749     2.6681     8.3934 H            1    LIG   0.0000
  65 H            5.6762     5.1722     4.1556 H            1    LIG   0.0000
  66 H            5.2807     4.1865     2.0220 H            1    LIG   0.0000
@<TRIPOS>BOND
   1        1        2 1
   2        2        3 1
   3        3        4 1
   4        4        5 1
   5        5        6 1
   6        6        7 1
   7        7        8 1
   8        8        9 1
   9        9       10 2
  10        9       11 am
  11       11       12 1
  12       12       13 ar
  13       13       14 ar
  14       14       15 ar
  15       15       16 1
  16       15       17 ar
  17       17       18 ar
  18       18       12 ar
  19       18       19 1
  20        6       20 2
  21       20       21 1
  22       21       22 ar
  23       22       23 ar
  24       23       24 1
  25       24       25 2
  26       24       26 2
  27       24       27 1
  28       27       28 1
  29       28       29 1
  30       29       30 1
  31       30       31 1
  32       31       27 1
  33       23       32 ar
  34       32       33 ar
  35       33       34 ar
  36       34       21 ar
  37       34        5 1
  38        1       35 1
  39        1       36 1
  40        1       37 1
  41        2       38 1
  42        2       39 1
  43        3       40 1
  44        3       41 1
  45        4       42 1
  46        4       43 1
  47        7       44 1
  48        7       45 1
  49        8       46 1
  50        8       47 1
  51       11       48 1
  52       13       49 1
  53       14       50 1
  54       16       51 1
  55       16       52 1
  56       16       53 1
  57       17       54 1
  58       19       55 1
  59       22       56 1
  60       28       57 1
  61       28       58 1
  62       29       59 1
  63       29       60 1
  64       30       61 1
  65       30       62 1
  66       31       63 1
  67       31       64 1
  68       32       65 1
  69       33       66 1

@<TRIPOS>MOLECULE

  66   69
SMALL
USER_CHARGES
@<TRIPOS>ATOM
   1 C1           3.0927     4.6281    -2.9578 C.3          1    LIG   0.0000
   2 C2           3.6535     3.5006    -2.1065 C.3          1    LIG   0.0000
   3 C3           3.0471     3.5670    -0.7143 C.3          1    LIG   0.0000
   4 C4           3.6079     2.4395     0.1369 C.3          1    LIG   0.0000
   5 N5           3.0213     2.5037     1.4836 N.pl3        1    LIG   0.0000
   6 C6           1.8774     1.8774     1.8774 C.2          1    LIG   0.0000
   7 C7           1.0000     1.0000     1.0000 C.3          1    LIG   0.0000
   8 C8          -0.0543     1.8575     0.3191 C.3          1    LIG   0.0000
   9 C9          -0.9318     0.9800    -0.5584 C.2          1    LIG   0.0000
  10 O10         -0.7258    -0.2004    -0.6232 O.2          1    LIG   0.0000
  11 N11         -1.9580     1.5366    -1.2754 N.am         1    LIG   0.0000
  12 C12         -2.7665     0.7281    -2.0839 C.ar         1    LIG   0.0000
  13 C13         -2.2361    -0.4196    -2.6640 C.ar         1    LIG   0.0000
  14 C14         -3.0517    -1.2132    -3.4644 C.ar         1    LIG   0.0000
  15 C15         -4.3793    -0.8540    -3.6764 C.ar         1    LIG   0.0000
  16 C16         -5.2645    -1.7248    -4.5535 C.3          1    LIG   0.0000
  17 C17         -4.9133     0.2923    -3.0977 C.ar         1    LIG   0.0000
  18 C18         -4.0944     1.0821    -2.2979 C.ar         1    LIG   0.0000
  19 O19         -4.5964     2.1984    -1.7284 O.3          1    LIG   0.0000
  20 N20          1.6518     2.1546     3.1407 N.2          1    LIG   0.0000
  21 C21          2.6582     2.9688     3.5741 C.ar         1    LIG   0.0000
  22 C22          2.8791     3.5390     4.8233 C.ar         1    LIG   0.0000
  23 C23          3.9845     4.3518     5.0542 C.ar         1    LIG   0.0000
  24 S24          4.2608     5.0650     6.6177 S.o2         1    LIG   0.0000
  25 O25          3.7212     4.2057     7.6394 O.2          1    LIG   0.0000
  26 O26          5.6760     5.2295     6.8269 O.2          1    LIG   0.0000
  27 N27          3.4697     6.6362     6.6941 N.3          1    LIG   0.0000
  28 C28          2.0318     6.5257     6.4128 C.3          1    LIG   0.0000
  29 C29          1.4458     7.8233     6.9271 C.3          1    LIG   0.0000
  30 C30          2.3944     8.2483     8.0259 C.3          1    LIG   0.0000
  31 C31          3.4424     7.1530     8.0671 C.3          1    LIG   0.0000
  32 C32          4.8751     4.5910     4.0123 C.ar         1    LIG   0.0000
  33 C33          4.6393     4.0129     2.7693 C.ar         1    LIG   0.0000
  34 C34          3.5337     3.1992     2.5385 C.ar         1    LIG   0.0000
  35 H            3.4917     4.5844    -3.8737 H            1    LIG   0.0000
  36 H            2.0991     4.5346    -3.0222 H            1    LIG   0.0000
  37 H            3.3182     5.5070    -2.5375 H            1    LIG   0.0000
  38 H            3.4280     2.6217    -2.5268 H            1    LIG   0.0000
  39 H            4.6471     3.5941    -2.0421 H            1    LIG   0.0000
  40 H            3.2726     4.4459    -0.2940 H            1    LIG   0.0000
  41 H            2.0535     3.4735    -0.7787 H            1    LIG   0.0000
  42 H            3.3824     1.5606    -0.2833 H            1    LIG   0.0000
  43 H            4.6015     2.5330     0.2013 H            1    LIG   0.0000
  44 H            0.5521     0.3064     1.5642 H            1    LIG   0.0000
  45 H            1.5642     0.5521     0.3064 H            1    LIG   0.0000
  46 H           -0.6184     2.3055     1.0127 H            1    LIG   0.0000
  47 H            0.3937     2.5511    -0.2450 H            1    LIG   0.0000
  48 H           -2.1296     2.5203    -1.2214 H            1    LIG   0.0000
  49 H           -1.2810    -0.6711    -2.5076 H            1    LIG   0.0000
  50 H           -2.6841    -2.0414    -3.8873 H            1    LIG   0.0000
  51 H           -4.7362    -2.5040    -4.8908 H            1    LIG   0.0000
  52 H           -6.0417    -2.0557    -4.0183 H            1    LIG   0.0000
  53 H           -5.5978    -1.1876    -5.3282 H            1    LIG   0.0000
  54 H           -5.8685     0.5441    -3.2538 H            1    LIG   0.0000
  55 H           -5.5513     2.4524    -1.8827 H            1    LIG   0.0000
  56 H            2.2339     3.3621     5.5666 H            1    LIG   0.0000
  57 H            1.6363     5.7435     6.8943 H            1    LIG   0.0000
  58 H            1.8699     6.4292     5.4307 H            1    LIG   0.0000
  59 H            0.5253     7.6777     7.2898 H            1    LIG   0.0000
  60 H            1.4132     8.5102     6.2011 H            1    LIG   0.0000
  61 H            2.8131     9.1303     7.8098 H            1    LIG   0.0000
  62 H            1.9153     8.3124     8.9013 H            1    LIG   0.0000
  63 H            4.3344     7.5241     8.3251 H            1    LIG   0.0000
  64 H            3.1809     6.4350     8.7121 H            1    LIG   0.0000
  65 H            5.6762     5.1722     4.1556 H            1    LIG   0.0000
  66 H            5.2807     4.1865     2.0220 H            1    LIG   0.0000
@<TRIPOS>BOND
   1        1        2 1
   2        2        3 1
   3        3        4 1
   4        4        5 1
   5        5        6 1
   6        6        7 1
   7        7        8 1
   8        8        9 1
   9        9       10 2
  10        9       11 am
  11       11       12 1
  12       12       13 ar
  13       13       14 ar
  14       14       15 ar
  15       15       16 1
  16       15       17 ar
  17       17       18 ar
  18       18       12 ar
  19       18       19 1
  20        6       20 2
  21       20       21 1
  22       21       22 ar
  23       22       23 ar
  24       23       24 1
  25       24       25 2
  26       24       26 2
  27       24       27 1
  28       27       28 1
  29       28       29 1
  30       29       30 1
  31       30       31 1
  32       31       27 1
  33       23       32 ar
  34       32       33 ar
  35       33       34 ar
  36       34       21 ar
  37       34        5 1
  38        1       35 1
  39        1       36 1
  40        1       37 1
  41        2       38 1
  42        2       39 1
  43        3       40 1
  44        3       41 1
  45        4       42 1
  46        4       43 1
  47        7       44 1
  48        7       45 1
  49        8       46 1
  50        8       47 1
  51       11       48 1
  52       13       49 1
  53       14       50 1
  54       16       51 1
  55       16       52 1
  56       16       53 1
  57       17       54 1
  58       19       55 1
  59       22       56 1
  60       28       57 1
  61       28       58 1
  62       29       59 1
  63       29       60 1
  64       30       61 1
  65       30       62 1
  66       31       63 1
  67       31       64 1
  68       32       65 1
  69       33       66 1

@<TRIPOS>MOLECULE

  66   69
SMALL
USER_CHARGES
@<TRIPOS>ATOM
   1 C1           3.0927     4.6281    -2.9578 C.3          1    LIG   0.0000
   2 C2           3.6535     3.5006    -2.1065 C.3          1    LIG   0.0000
   3 C3           3.0471     3.5670    -0.7143 C.3          1    LIG   0.0000
   4 C4           3.6079     2.4395     0.1369 C.3          1    LIG   0.0000
   5 N5           3.0213     2.5037     1.4836 N.pl3        1    LIG   0.0000
   6 C6           1.8774     1.8774     1.8774 C.2          1    LIG   0.0000
   7 C7           1.0000     1.0000     1.0000 C.3          1    LIG   0.0000
   8 C8          -0.0543     1.8575     0.3191 C.3          1    LIG   0.0000
   9 C9          -0.9318     0.9800    -0.5584 C.2          1    LIG   0.0000
  10 O10         -0.7258    -0.2004    -0.6232 O.2          1    LIG   0.0000
  11 N11         -1.9580     1.5366    -1.2754 N.am         1    LIG   0.0000
  12 C12         -2.7665     0.7281    -2.0839 C.ar         1    LIG   0.0000
  13 C13         -4.1345     0.6568    -1.8420 C.ar         1    LIG   0.0000
  14 C14         -4.9249    -0.1504    -2.6540 C.ar         1    LIG   0.0000
  15 C15         -4.3446    -0.8737    -3.6915 C.ar         1    LIG   0.0000
  16 C16         -5.2140    -1.7549    -4.5739 C.3          1    LIG   0.0000
  17 C17         -2.9774    -0.8044    -3.9369 C.ar         1    LIG   0.0000
  18 C18         -2.1914     0.0042    -3.1231 C.ar         1    LIG   0.0000
  19 O19         -0.8624     0.0831    -3.3471 O.3          1    LIG   0.0000
  20 N20          1.6518     2.1546     3.1407 N.2          1    LIG   0.0000
  21 C21          2.6582     2.9688     3.5741 C.ar         1    LIG   0.0000
  22 C22          2.8791     3.5390     4.8233 C.ar         1    LIG   0.0000
  23 C23          3.9845     4.3518     5.0542 C.ar         1    LIG   0.0000
  24 S24          4.2608     5.0650     6.6177 S.o2         1    LIG   0.0000
  25 O25          3.7212     4.2057     7.6394 O.2          1    LIG   0.0000
  26 O26          5.6760     5.2295     6.8269 O.2          1    LIG   0.0000
  27 N27          3.4697     6.6362     6.6941 N.3          1    LIG   0.0000
  28 C28          2.0318     6.5257     6.4128 C.3          1    LIG   0.0000
  29 C29          1.4458     7.8233     6.9271 C.3          1    LIG   0.0000
  30 C30          2.3944     8.2483     8.0259 C.3          1    LIG   0.0000
  31 C31          3.4424     7.1530     8.0671 C.3          1    LIG   0.0000
  32 C32          4.8751     4.5910     4.0123 C.ar         1    LIG   0.0000
  33 C33          4.6393     4.0129     2.7693 C.ar         1    LIG   0.0000
  34 C34          3.5337     3.1992     2.5385 C.ar         1    LIG   0.0000
  35 H            3.4917     4.5844    -3.8737 H            1    LIG   0.0000
  36 H            2.0991     4.5346    -3.0222 H            1    LIG   0.0000
  37 H            3.3182     5.5070    -2.5375 H            1    LIG   0.0000
  38 H            3.4280     2.6217    -2.5268 H            1    LIG   0.0000
  39 H            4.6471     3.5941    -2.0421 H            1    LIG   0.0000
  40 H            3.2726     4.4459    -0.2940 H            1    LIG   0.0000
  41 H            2.0535     3.4735    -0.7787 H            1    LIG   0.0000
  42 H            3.3824     1.5606    -0.2833 H            1    LIG   0.0000
  43 H            4.6015     2.5330     0.2013 H            1    LIG   0.0000
  44 H            0.5521     0.3064     1.5642 H            1    LIG   0.0000
  45 H            1.5642     0.5521     0.3064 H            1    LIG   0.0000
  46 H           -0.6184     2.3055     1.0127 H            1    LIG   0.0000
  47 H            0.3937     2.5511    -0.2450 H            1    LIG   0.0000
  48 H           -2.1296     2.5203    -1.2214 H            1    LIG   0.0000
  49 H           -4.5444     1.1789    -1.0942 H            1    LIG   0.0000
  50 H           -5.9099    -0.2108    -2.4920 H            1    LIG   0.0000
  51 H           -6.1649    -1.6959    -4.2702 H            1    LIG   0.0000
  52 H           -5.1472    -1.4459    -5.5226 H            1    LIG   0.0000
  53 H           -4.9016    -2.7027    -4.5093 H            1    LIG   0.0000
  54 H           -2.5671    -1.3263    -4.6848 H            1    LIG   0.0000
  55 H           -0.4496    -0.4376    -4.0944 H            1    LIG   0.0000
  56 H            2.2339     3.3621     5.5666 H            1    LIG   0.0000
  57 H            1.6363     5.7435     6.8943 H            1    LIG   0.0000
  58 H            1.8699     6.4292     5.4307 H            1    LIG   0.0000
  59 H            0.5253     7.6777     7.2898 H            1    LIG   0.0000
  60 H            1.4132     8.5102     6.2011 H            1    LIG   0.0000
  61 H            2.8131     9.1303     7.8098 H            1    LIG   0.0000
  62 H            1.9153     8.3124     8.9013 H            1    LIG   0.0000
  63 H            4.3344     7.5241     8.3251 H            1    LIG   0.0000
  64 H            3.1809     6.4350     8.7121 H            1    LIG   0.0000
  65 H            5.6762     5.1722     4.1556 H            1    LIG   0.0000
  66 H            5.2807     4.1865     2.0220 H            1    LIG   0.0000
@<TRIPOS>BOND
   1        1        2 1
   2        2        3 1
   3        3        4 1
   4        4        5 1
   5        5        6 1
   6        6        7 1
   7        7        8 1
   8        8        9 1
   9        9       10 2
  10        9       11 am
  11       11       12 1
  12       12       13 ar
  13       13       14 ar
  14       14       15 ar
  15       15       16 1
  16       15       17 ar
  17       17       18 ar
  18       18       12 ar
  19       18       19 1
  20        6       20 2
  21       20       21 1
  22       21       22 ar
  23       22       23 ar
  24       23       24 1
  25       24       25 2
  26       24       26 2
  27       24       27 1
  28       27       28 1
  29       28       29 1
  30       29       30 1
  31       30       31 1
  32       31       27 1
  33       23       32 ar
  34       32       33 ar
  35       33       34 ar
  36       34       21 ar
  37       34        5 1
  38        1       35 1
  39        1       36 1
  40        1       37 1
  41        2       38 1
  42        2       39 1
  43        3       40 1
  44        3       41 1
  45        4       42 1
  46        4       43 1
  47        7       44 1
  48        7       45 1
  49        8       46 1
  50        8       47 1
  51       11       48 1
  52       13       49 1
  53       14       50 1
  54       16       51 1
  55       16       52 1
  56       16       53 1
  57       17       54 1
  58       19       55 1
  59       22       56 1
  60       28       57 1
  61       28       58 1
  62       29       59 1
  63       29       60 1
  64       30       61 1
  65       30       62 1
  66       31       63 1
  67       31       64 1
  68       32       65 1
  69       33       66 1

@<TRIPOS>MOLECULE

  66   69
SMALL
USER_CHARGES
@<TRIPOS>ATOM
   1 C1           6.1447     0.0297    -1.4090 C.3          1    LIG   0.0000
   2 C2           5.1795     1.2014    -1.3321 C.3          1    LIG   0.0000
   3 C3           4.5731     1.2678     0.0601 C.3          1    LIG   0.0000
   4 C4           3.6079     2.4395     0.1369 C.3          1    LIG   0.0000
   5 N5           3.0213     2.5037     1.4836 N.pl3        1    LIG   0.0000
   6 C6           1.8774     1.8774     1.8774 C.2          1    LIG   0.0000
   7 C7           1.0000     1.0000     1.0000 C.3          1    LIG   0.0000
   8 C8          -0.0543     1.8575     0.3191 C.3          1    LIG   0.0000
   9 C9          -0.9318     0.9800    -0.5584 C.2          1    LIG   0.0000
  10 O10         -0.7258    -0.2004    -0.6232 O.2          1    LIG   0.0000
  11 N11         -1.9580     1.5366    -1.2754 N.am         1    LIG   0.0000
  12 C12         -2.7665     0.7281    -2.0839 C.ar         1    LIG   0.0000
  13 C13         -2.2361    -0.4196    -2.6640 C.ar         1    LIG   0.0000
  14 C14         -3.0517    -1.2132    -3.4644 C.ar         1    LIG   0.0000
  15 C15         -4.3793    -0.8540    -3.6764 C.ar         1    LIG   0.0000
  16 C16         -5.2645    -1.7248    -4.5535 C.3          1    LIG   0.0000
  17 C17         -4.9133     0.2923    -3.0977 C.ar         1    LIG   0.0000
  18 C18         -4.0944     1.0821    -2.2979 C.ar         1    LIG   0.0000
  19 O19         -4.5964     2.1984    -1.7284 O.3          1    LIG   0.0000
  20 N20          1.6518     2.1546     3.1407 N.2          1    LIG   0.0000
  21 C21          2.6582     2.9688     3.5741 C.ar         1    LIG   0.0000
  22 C22          2.8791     3.5390     4.8233 C.ar         1    LIG   0.0000
  23 C23          3.9845     4.3518     5.0542 C.ar         1    LIG   0.0000
  24 S24          4.2608     5.0650     6.6177 S.o2         1    LIG   0.0000
  25 O25          4.9528     6.3178     6.4583 O.2          1    LIG   0.0000
  26 O26          2.9980     5.2939     7.2708 O.2          1    LIG   0.0000
  27 N27          5.2377     3.9755     7.5951 N.3          1    LIG   0.0000
  28 C28          6.5029     3.6629     6.9221 C.3          1    LIG   0.0000
  29 C29          7.0120     2.4790     7.7179 C.3          1    LIG   0.0000
  30 C30          5.7542     1.7667     8.1716 C.3          1    LIG   0.0000
  31 C31          4.6103     2.6549     7.7159 C.3          1    LIG   0.0000
  32 C32          4.8751     4.5910     4.0123 C.ar         1    LIG   0.0000
  33 C33          4.6393     4.0129     2.7693 C.ar         1    LIG   0.0000
  34 C34          3.5337     3.1992     2.5385 C.ar         1    LIG   0.0000
  35 H            6.5437    -0.0140    -2.3249 H            1    LIG   0.0000
  36 H            6.8722     0.1523    -0.7340 H            1    LIG   0.0000
  37 H            5.6531    -0.8201    -1.2187 H            1    LIG   0.0000
  38 H            5.6711     2.0512    -1.5224 H            1    LIG   0.0000
  39 H            4.4520     1.0788    -2.0071 H            1    LIG   0.0000
  40 H            4.0815     0.4180     0.2504 H            1    LIG   0.0000
  41 H            5.3006     1.3904     0.7351 H            1    LIG   0.0000
  42 H            4.0995     3.2893    -0.0534 H            1    LIG   0.0000
  43 H            2.8804     2.3169    -0.5381 H            1    LIG   0.0000
  44 H            0.5521     0.3064     1.5642 H            1    LIG   0.0000
  45 H            1.5642     0.5521     0.3064 H            1    LIG   0.0000
  46 H           -0.6184     2.3055     1.0127 H            1    LIG   0.0000
  47 H            0.3937     2.5511    -0.2450 H            1    LIG   0.0000
  48 H           -2.1296     2.5203    -1.2214 H            1    LIG   0.0000
  49 H           -1.2810    -0.6711    -2.5076 H            1    LIG   0.0000
  50 H           -2.6841    -2.0414    -3.8873 H            1    LIG   0.0000
  51 H           -4.7362    -2.5040    -4.8908 H            1    LIG   0.0000
  52 H           -6.0417    -2.0557    -4.0183 H            1    LIG   0.0000
  53 H           -5.5978    -1.1876    -5.3282 H            1    LIG   0.0000
  54 H           -5.8685     0.5441    -3.2538 H            1    LIG   0.0000
  55 H           -5.5513     2.4524    -1.8827 H            1    LIG   0.0000
  56 H            2.2339     3.3621     5.5666 H            1    LIG   0.0000
  57 H            7.1390     4.4329     6.9722 H            1    LIG   0.0000
  58 H            6.3520     3.4170     5.9646 H            1    LIG   0.0000
  59 H            7.5493     2.7849     8.5039 H            1    LIG   0.0000
  60 H            7.5712     1.8804     7.1444 H            1    LIG   0.0000
  61 H            5.6889     0.8642     7.7459 H            1    LIG   0.0000
  62 H            5.7465     1.6672     9.1666 H            1    LIG   0.0000
  63 H            4.2473     2.3487     6.8359 H            1    LIG   0.0000
  64 H            3.8749     2.6681     8.3934 H            1    LIG   0.0000
  65 H            5.6762     5.1722     4.1556 H            1    LIG   0.0000
  66 H            5.2807     4.1865     2.0220 H            1    LIG   0.0000
@<TRIPOS>BOND
   1        1        2 1
   2        2        3 1
   3        3        4 1
   4        4        5 1
   5        5        6 1
   6        6        7 1
   7        7        8 1
   8        8        9 1
   9        9       10 2
  10        9       11 am
  11       11       12 1
  12       12       13 ar
  13       13       14 ar
  14       14       15 ar
  15       15       16 1
  16       15       17 ar
  17       17       18 ar
  18       18       12 ar
  19       18       19 1
  20        6       20 2
  21       20       21 1
  22       21       22 ar
  23       22       23 ar
  24       23       24 1
  25       24       25 2
  26       24       26 2
  27       24       27 1
  28       27       28 1
  29       28       29 1
  30       29       30 1
  31       30       31 1
  32       31       27 1
  33       23       32 ar
  34       32       33 ar
  35       33       34 ar
  36       34       21 ar
  37       34        5 1
  38        1       35 1
  39        1       36 1
  40        1       37 1
  41        2       38 1
  42        2       39 1
  43        3       40 1
  44        3       41 1
  45        4       42 1
  46        4       43 1
  47        7       44 1
  48        7       45 1
  49        8       46 1
  50        8       47 1
  51       11       48 1
  52       13       49 1
  53       14       50 1
  54       16       51 1
  55       16       52 1
  56       16       53 1
  57       17       54 1
  58       19       55 1
  59       22       56 1
  60       28       57 1
  61       28       58 1
  62       29       59 1
  63       29       60 1
  64       30       61 1
  65       30       62 1
  66       31       63 1
  67       31       64 1
  68       32       65 1
  69       33       66 1

@<TRIPOS>MOLECULE

  66   69
SMALL
USER_CHARGES
@<TRIPOS>ATOM
   1 C1           6.1447     0.0297    -1.4090 C.3          1    LIG   0.0000
   2 C2           5.1795     1.2014    -1.3321 C.3          1    LIG   0.0000
   3 C3           4.5731     1.2678     0.0601 C.3          1    LIG   0.0000
   4 C4           3.6079     2.4395     0.1369 C.3          1    LIG   0.0000
   5 N5           3.0213     2.5037     1.4836 N.pl3        1    LIG   0.0000
   6 C6           1.8774     1.8774     1.8774 C.2          1    LIG   0.0000
   7 C7           1.0000     1.0000     1.0000 C.3          1    LIG   0.0000
   8 C8          -0.0543     1.8575     0.3191 C.3          1    LIG   0.0000
   9 C9          -0.9318     0.9800    -0.5584 C.2          1    LIG   0.0000
  10 O10         -0.7258    -0.2004    -0.6232 O.2          1    LIG   0.0000
  11 N11         -1.9580     1.5366    -1.2754 N.am         1    LIG   0.0000
  12 C12         -2.7665     0.7281    -2.0839 C.ar         1    LIG   0.0000
  13 C13         -2.8378     0.9700    -3.4519 C.ar         1    LIG   0.0000
  14 C14         -3.6450     0.1581    -4.2424 C.ar         1    LIG   0.0000
  15 C15         -4.3682    -0.8795    -3.6620 C.ar         1    LIG   0.0000
  16 C16         -5.2495    -1.7618    -4.5314 C.3          1    LIG   0.0000
  17 C17         -4.2990    -1.1249    -2.2949 C.ar         1    LIG   0.0000
  18 C18         -3.4903    -0.3110    -1.5089 C.ar         1    LIG   0.0000
  19 O19         -3.4115    -0.5351    -0.1799 O.3          1    LIG   0.0000
  20 N20          1.6518     2.1546     3.1407 N.2          1    LIG   0.0000
  21 C21          2.6582     2.9688     3.5741 C.ar         1    LIG   0.0000
  22 C22          2.8791     3.5390     4.8233 C.ar         1    LIG   0.0000
  23 C23          3.9845     4.3518     5.0542 C.ar         1    LIG   0.0000
  24 S24          4.2608     5.0650     6.6177 S.o2         1    LIG   0.0000
  25 O25          3.7212     4.2057     7.6394 O.2          1    LIG   0.0000
  26 O26          5.6760     5.2295     6.8269 O.2          1    LIG   0.0000
  27 N27          3.4701     6.6353     6.6941 N.3          1    LIG   0.0000
  28 C28          2.0361     6.5120     6.4117 C.3          1    LIG   0.0000
  29 C29          1.6256     7.9504     6.1737 C.3          1    LIG   0.0000
  30 C30          2.8567     8.5939     5.5690 C.3          1    LIG   0.0000
  31 C31          3.9285     7.5197     5.6171 C.3          1    LIG   0.0000
  32 C32          4.8751     4.5910     4.0123 C.ar         1    LIG   0.0000
  33 C33          4.6393     4.0129     2.7693 C.ar         1    LIG   0.0000
  34 C34          3.5337     3.1992     2.5385 C.ar         1    LIG   0.0000
  35 H            6.5437    -0.0140    -2.3249 H            1    LIG   0.0000
  36 H            6.8722     0.1523    -0.7340 H            1    LIG   0.0000
  37 H            5.6531    -0.8201    -1.2187 H            1    LIG   0.0000
  38 H            5.6711     2.0512    -1.5224 H            1    LIG   0.0000
  39 H            4.4520     1.0788    -2.0071 H            1    LIG   0.0000
  40 H            4.0815     0.4180     0.2504 H            1    LIG   0.0000
  41 H            5.3006     1.3904     0.7351 H            1    LIG   0.0000
  42 H            4.0995     3.2893    -0.0534 H            1    LIG   0.0000
  43 H            2.8804     2.3169    -0.5381 H            1    LIG   0.0000
  44 H            0.5521     0.3064     1.5642 H            1    LIG   0.0000
  45 H            1.5642     0.5521     0.3064 H            1    LIG   0.0000
  46 H           -0.6184     2.3055     1.0127 H            1    LIG   0.0000
  47 H            0.3937     2.5511    -0.2450 H            1    LIG   0.0000
  48 H           -2.1296     2.5203    -1.2214 H            1    LIG   0.0000
  49 H           -2.3157     1.7179    -3.8619 H            1    LIG   0.0000
  50 H           -3.7054     0.3200    -5.2273 H            1    LIG   0.0000
  51 H           -5.1905    -1.4581    -5.4824 H            1    LIG   0.0000
  52 H           -4.9405    -2.7105    -4.4647 H            1    LIG   0.0000
  53 H           -6.1973    -1.6972    -4.2191 H            1    LIG   0.0000
  54 H           -4.8209    -1.8727    -1.8846 H            1    LIG   0.0000
  55 H           -3.9322    -1.2823     0.2329 H            1    LIG   0.0000
  56 H            2.2339     3.3621     5.5666 H            1    LIG   0.0000
  57 H            1.5465     6.1204     7.1907 H            1    LIG   0.0000
  58 H            1.8743     5.9508     5.6000 H            1    LIG   0.0000
  59 H            1.3793     8.3958     7.0345 H            1    LIG   0.0000
  60 H            0.8531     7.9985     5.5405 H            1    LIG   0.0000
  61 H            2.6799     8.8714     4.6247 H            1    LIG   0.0000
  62 H            3.1348     9.3915     6.1043 H            1    LIG   0.0000
  63 H            3.9824     7.0280     4.7480 H            1    LIG   0.0000
  64 H            4.8218     7.9140     5.8329 H            1    LIG   0.0000
  65 H            5.6762     5.1722     4.1556 H            1    LIG   0.0000
  66 H            5.2807     4.1865     2.0220 H            1    LIG   0.0000
@<TRIPOS>BOND
   1        1        2 1
   2        2        3 1
   3        3        4 1
   4        4        5 1
   5        5        6 1
   6        6        7 1
   7        7        8 1
   8        8        9 1
   9        9       10 2
  10        9       11 am
  11       11       12 1
  12       12       13 ar
  13       13       14 ar
  14       14       15 ar
  15       15       16 1
  16       15       17 ar
  17       17       18 ar
  18       18       12 ar
  19       18       19 1
  20        6       20 2
  21       20       21 1
  22       21       22 ar
  23       22       23 ar
  24       23       24 1
  25       24       25 2
  26       24       26 2
  27       24       27 1
  28       27       28 1
  29       28       29 1
  30       29       30 1
  31       30       31 1
  32       31       27 1
  33       23       32 ar
  34       32       33 ar
  35       33       34 ar
  36       34       21 ar
  37       34        5 1
  38        1       35 1
  39        1       36 1
  40        1       37 1
  41        2       38 1
  42        2       39 1
  43        3       40 1
  44        3       41 1
  45        4       42 1
  46        4       43 1
  47        7       44 1
  48        7       45 1
  49        8       46 1
  50        8       47 1
  51       11       48 1
  52       13       49 1
  53       14       50 1
  54       16       51 1
  55       16       52 1
  56       16       53 1
  57       17       54 1
  58       19       55 1
  59       22       56 1
  60       28       57 1
  61       28       58 1
  62       29       59 1
  63       29       60 1
  64       30       61 1
  65       30       62 1
  66       31       63 1
  67       31       64 1
  68       32       65 1
  69       33       66 1

