@<TRIPOS>MOLECULE
*****
 66 69 0 0 0
SMALL
USER_CHARGES

@<TRIPOS>ATOM
      1 C1         -2.9678    3.1473    4.5859 C.3     1  LIG1        0.0000
      2 C2         -1.8137    2.1645    4.6980 C.3     1  LIG1        0.0000
      3 C3         -0.6391    2.6662    3.8739 C.3     1  LIG1        0.0000
      4 C4          0.5150    1.6834    3.9860 C.3     1  LIG1        0.0000
      5 N5          1.6511    2.1687    3.1888 N.pl3   1  LIG1        0.0000
      6 C6          1.8774    1.8774    1.8774 C.2     1  LIG1        0.0000
      7 C7          1.0000    1.0000    1.0000 C.3     1  LIG1        0.0000
      8 C8         -0.0543    1.8575    0.3191 C.3     1  LIG1        0.0000
      9 C9         -0.9318    0.9800   -0.5584 C.2     1  LIG1        0.0000
     10 O10        -0.7258   -0.2004   -0.6232 O.2     1  LIG1        0.0000
     11 N11        -1.9580    1.5366   -1.2754 N.am    1  LIG1        0.0000
     12 C12        -2.7665    0.7281   -2.0839 C.3     1  LIG1        0.0000
     13 C13        -4.1345    0.6568   -1.8420 C.3     1  LIG1        0.0000
     14 C14        -4.9249   -0.1504   -2.6540 C.3     1  LIG1        0.0000
     15 C15        -4.3446   -0.8737   -3.6915 C.3     1  LIG1        0.0000
     16 C16        -5.2140   -1.7549   -4.5739 C.3     1  LIG1        0.0000
     17 C17        -2.9774   -0.8044   -3.9369 C.3     1  LIG1        0.0000
     18 C18        -2.1914    0.0042   -3.1231 C.3     1  LIG1        0.0000
     19 O19        -0.8624    0.0831   -3.3471 O.2     1  LIG1        0.0000
     20 N20         2.9796    2.4768    1.4907 N.2     1  LIG1        0.0000
     21 C21         3.4759    3.1653    2.5600 C.3     1  LIG1        0.0000
     22 C22         4.6152    3.9553    2.6709 C.3     1  LIG1        0.0000
     23 C23         4.9425    4.5752    3.8728 C.3     1  LIG1        0.0000
     24 S24         6.3682    5.5640    4.0113 S.O2    1  LIG1        0.0000
     25 O25         6.8664    5.5014    5.3610 O.2     1  LIG1        0.0000
     26 O26         7.3772    5.0812    3.1044 O.2     1  LIG1        0.0000
     27 N27         5.9678    7.2300    3.6105 N.3     1  LIG1        0.0000
     28 C28         4.8890    7.7290    4.4698 C.3     1  LIG1        0.0000
     29 C29         4.4606    8.9936    3.7547 C.3     1  LIG1        0.0000
     30 C30         4.7074    8.6950    2.2900 C.3     1  LIG1        0.0000
     31 C31         5.3771    7.3325    2.2715 C.3     1  LIG1        0.0000
     32 C32         4.1105    4.3946    4.9733 C.3     1  LIG1        0.0000
     33 C33         2.9751    3.6014    4.8451 C.3     1  LIG1        0.0000
     34 C34         2.6472    2.9818    3.6424 C.3     1  LIG1        0.0000
     35 H          -3.7405    2.8172    5.1281 H       1  LIG1        0.0000
     36 H          -2.6785    4.0414    4.9277 H       1  LIG1        0.0000
     37 H          -3.2436    3.2297    3.6282 H       1  LIG1        0.0000
     38 H          -1.5379    2.0820    5.6557 H       1  LIG1        0.0000
     39 H          -2.1029    1.2703    4.3563 H       1  LIG1        0.0000
     40 H          -0.9149    2.7486    2.9162 H       1  LIG1        0.0000
     41 H          -0.3499    3.5603    4.2156 H       1  LIG1        0.0000
     42 H           0.7908    1.6010    4.9437 H       1  LIG1        0.0000
     43 H           0.2258    0.7892    3.6442 H       1  LIG1        0.0000
     44 H           0.5521    0.3064    1.5642 H       1  LIG1        0.0000
     45 H           1.5642    0.5521    0.3064 H       1  LIG1        0.0000
     46 H          -0.6184    2.3055    1.0127 H       1  LIG1        0.0000
     47 H           0.3937    2.5511   -0.2450 H       1  LIG1        0.0000
     48 H          -2.1296    2.5203   -1.2214 H       1  LIG1        0.0000
     49 H          -4.5444    1.1789   -1.0942 H       1  LIG1        0.0000
     50 H          -5.9099   -0.2108   -2.4920 H       1  LIG1        0.0000
     51 H          -6.1649   -1.6959   -4.2702 H       1  LIG1        0.0000
     52 H          -5.1472   -1.4459   -5.5226 H       1  LIG1        0.0000
     53 H          -4.9016   -2.7027   -4.5093 H       1  LIG1        0.0000
     54 H          -2.5671   -1.3263   -4.6848 H       1  LIG1        0.0000
     55 H          -0.4496   -0.4376   -4.0944 H       1  LIG1        0.0000
     56 H           5.2078    4.0796    1.8751 H       1  LIG1        0.0000
     57 H           5.2237    7.9299    5.3905 H       1  LIG1        0.0000
     58 H           4.1371    7.0720    4.5245 H       1  LIG1        0.0000
     59 H           5.0094    9.7738    4.0548 H       1  LIG1        0.0000
     60 H           3.4928    9.1836    3.9196 H       1  LIG1        0.0000
     61 H           3.8437    8.6685    1.7868 H       1  LIG1        0.0000
     62 H           5.3070    9.3864    1.8870 H       1  LIG1        0.0000
     63 H           4.7072    6.6059    2.1187 H       1  LIG1        0.0000
     64 H           6.0827    7.2895    1.5642 H       1  LIG1        0.0000
     65 H           4.3264    4.8304    5.8470 H       1  LIG1        0.0000
     66 H           2.3788    3.4729    5.6375 H       1  LIG1        0.0000
@<TRIPOS>BOND
     1     1     2    1
     2     2     3    1
     3     3     4    1
     4     4     5    1
     5     5     6    1
     6     6     7    1
     7     7     8    1
     8     8     9    1
     9     9    10    2
    10     9    11   am
    11    11    12    1
    12    12    13   ar
    13    13    14   ar
    14    14    15   ar
    15    15    16    1
    16    15    17   ar
    17    17    18   ar
    18    18    12   ar
    19    18    19    1
    20     6    20    2
    21    20    21    1
    22    21    22   ar
    23    22    23   ar
    24    23    24    1
    25    24    25    2
    26    24    26    2
    27    24    27    1
    28    27    28    1
    29    28    29    1
    30    29    30    1
    31    30    31    1
    32    31    27    1
    33    23    32   ar
    34    32    33   ar
    35    33    34   ar
    36    34    21   ar
    37    34     5    1
    38     1    35    1
    39     1    36    1
    40     1    37    1
    41     2    38    1
    42     2    39    1
    43     3    40    1
    44     3    41    1
    45     4    42    1
    46     4    43    1
    47     7    44    1
    48     7    45    1
    49     8    46    1
    50     8    47    1
    51    11    48    1
    52    13    49    1
    53    14    50    1
    54    16    51    1
    55    16    52    1
    56    16    53    1
    57    17    54    1
    58    19    55    1
    59    22    56    1
    60    28    57    1
    61    28    58    1
    62    29    59    1
    63    29    60    1
    64    30    61    1
    65    30    62    1
    66    31    63    1
    67    31    64    1
    68    32    65    1
    69    33    66    1
