@<TRIPOS>MOLECULE
*****
 66 69 0 0 0
SMALL
USER_CHARGES

@<TRIPOS>ATOM
      1 C1          3.0927    4.6281   -2.9578 C.3     1  LIG1        0.0000
      2 C2          3.6535    3.5006   -2.1065 C.3     1  LIG1        0.0000
      3 C3          3.0471    3.5670   -0.7143 C.3     1  LIG1        0.0000
      4 C4          3.6079    2.4395    0.1369 C.3     1  LIG1        0.0000
      5 N5          3.0213    2.5037    1.4836 N.pl3   1  LIG1        0.0000
      6 C6          1.8774    1.8774    1.8774 C.2     1  LIG1        0.0000
      7 C7          1.0000    1.0000    1.0000 C.3     1  LIG1        0.0000
      8 C8         -0.0543    1.8575    0.3191 C.3     1  LIG1        0.0000
      9 C9         -0.9318    0.9800   -0.5584 C.2     1  LIG1        0.0000
     10 O10        -0.7258   -0.2004   -0.6232 O.2     1  LIG1        0.0000
     11 N11        -1.9580    1.5366   -1.2754 N.am    1  LIG1        0.0000
     12 C12        -2.7665    0.7281   -2.0839 C.3     1  LIG1        0.0000
     13 C13        -4.1345    0.6568   -1.8420 C.3     1  LIG1        0.0000
     14 C14        -4.9249   -0.1504   -2.6540 C.3     1  LIG1        0.0000
     15 C15        -4.3446   -0.8737   -3.6915 C.3     1  LIG1        0.0000
     16 C16        -5.2140   -1.7549   -4.5739 C.3     1  LIG1        0.0000
     17 C17        -2.9774   -0.8044   -3.9369 C.3     1  LIG1        0.0000
     18 C18        -2.1914    0.0042   -3.1231 C.3     1  LIG1        0.0000
     19 O19        -0.8624    0.0831   -3.3471 O.2     1  LIG1        0.0000
     20 N20         1.6518    2.1546    3.1407 N.2     1  LIG1        0.0000
     21 C21         2.6582    2.9688    3.5741 C.3     1  LIG1        0.0000
     22 C22         2.8791    3.5390    4.8233 C.3     1  LIG1        0.0000
     23 C23         3.9845    4.3518    5.0542 C.3     1  LIG1        0.0000
     24 S24         4.2608    5.0650    6.6177 S.O2    1  LIG1        0.0000
     25 O25         3.7212    4.2057    7.6394 O.2     1  LIG1        0.0000
     26 O26         5.6760    5.2295    6.8269 O.2     1  LIG1        0.0000
     27 N27         3.4697    6.6362    6.6941 N.3     1  LIG1        0.0000
     28 C28         2.0318    6.5257    6.4128 C.3     1  LIG1        0.0000
     29 C29         1.4458    7.8233    6.9271 C.3     1  LIG1        0.0000
     30 C30         2.3944    8.2483    8.0259 C.3     1  LIG1        0.0000
     31 C31         3.4424    7.1530    8.0671 C.3     1  LIG1        0.0000
     32 C32         4.8751    4.5910    4.0123 C.3     1  LIG1        0.0000
     33 C33         4.6393    4.0129    2.7693 C.3     1  LIG1        0.0000
     34 C34         3.5337    3.1992    2.5385 C.3     1  LIG1        0.0000
     35 H           3.4917    4.5844   -3.8737 H       1  LIG1        0.0000
     36 H           2.0991    4.5346   -3.0222 H       1  LIG1        0.0000
     37 H           3.3182    5.5070   -2.5375 H       1  LIG1        0.0000
     38 H           3.4280    2.6217   -2.5268 H       1  LIG1        0.0000
     39 H           4.6471    3.5941   -2.0421 H       1  LIG1        0.0000
     40 H           3.2726    4.4459   -0.2940 H       1  LIG1        0.0000
     41 H           2.0535    3.4735   -0.7787 H       1  LIG1        0.0000
     42 H           3.3824    1.5606   -0.2833 H       1  LIG1        0.0000
     43 H           4.6015    2.5330    0.2013 H       1  LIG1        0.0000
     44 H           0.5521    0.3064    1.5642 H       1  LIG1        0.0000
     45 H           1.5642    0.5521    0.3064 H       1  LIG1        0.0000
     46 H          -0.6184    2.3055    1.0127 H       1  LIG1        0.0000
     47 H           0.3937    2.5511   -0.2450 H       1  LIG1        0.0000
     48 H          -2.1296    2.5203   -1.2214 H       1  LIG1        0.0000
     49 H          -4.5444    1.1789   -1.0942 H       1  LIG1        0.0000
     50 H          -5.9099   -0.2108   -2.4920 H       1  LIG1        0.0000
     51 H          -6.1649   -1.6959   -4.2702 H       1  LIG1        0.0000
     52 H          -5.1472   -1.4459   -5.5226 H       1  LIG1        0.0000
     53 H          -4.9016   -2.7027   -4.5093 H       1  LIG1        0.0000
     54 H          -2.5671   -1.3263   -4.6848 H       1  LIG1        0.0000
     55 H          -0.4496   -0.4376   -4.0944 H       1  LIG1        0.0000
     56 H           2.2339    3.3621    5.5666 H       1  LIG1        0.0000
     57 H           1.6363    5.7435    6.8943 H       1  LIG1        0.0000
     58 H           1.8699    6.4292    5.4307 H       1  LIG1        0.0000
     59 H           0.5253    7.6777    7.2898 H       1  LIG1        0.0000
     60 H           1.4132    8.5102    6.2011 H       1  LIG1        0.0000
     61 H           2.8131    9.1303    7.8098 H       1  LIG1        0.0000
     62 H           1.9153    8.3124    8.9013 H       1  LIG1        0.0000
     63 H           4.3344    7.5241    8.3251 H       1  LIG1        0.0000
     64 H           3.1809    6.4350    8.7121 H       1  LIG1        0.0000
     65 H           5.6762    5.1722    4.1556 H       1  LIG1        0.0000
     66 H           5.2807    4.1865    2.0220 H       1  LIG1        0.0000
@<TRIPOS>BOND
     1     1     2    1
     2     2     3    1
     3     3     4    1
     4     4     5    1
     5     5     6    1
     6     6     7    1
     7     7     8    1
     8     8     9    1
     9     9    10    2
    10     9    11   am
    11    11    12    1
    12    12    13   ar
    13    13    14   ar
    14    14    15   ar
    15    15    16    1
    16    15    17   ar
    17    17    18   ar
    18    18    12   ar
    19    18    19    1
    20     6    20    2
    21    20    21    1
    22    21    22   ar
    23    22    23   ar
    24    23    24    1
    25    24    25    2
    26    24    26    2
    27    24    27    1
    28    27    28    1
    29    28    29    1
    30    29    30    1
    31    30    31    1
    32    31    27    1
    33    23    32   ar
    34    32    33   ar
    35    33    34   ar
    36    34    21   ar
    37    34     5    1
    38     1    35    1
    39     1    36    1
    40     1    37    1
    41     2    38    1
    42     2    39    1
    43     3    40    1
    44     3    41    1
    45     4    42    1
    46     4    43    1
    47     7    44    1
    48     7    45    1
    49     8    46    1
    50     8    47    1
    51    11    48    1
    52    13    49    1
    53    14    50    1
    54    16    51    1
    55    16    52    1
    56    16    53    1
    57    17    54    1
    58    19    55    1
    59    22    56    1
    60    28    57    1
    61    28    58    1
    62    29    59    1
    63    29    60    1
    64    30    61    1
    65    30    62    1
    66    31    63    1
    67    31    64    1
    68    32    65    1
    69    33    66    1
