@<TRIPOS>MOLECULE
*****
 66 69 0 0 0
SMALL
USER_CHARGES

@<TRIPOS>ATOM
      1 C1          2.4191   -2.7727    5.1190 C.3     1  LIG1        0.0000
      2 C2          3.1457   -2.0766    3.9797 C.3     1  LIG1        0.0000
      3 C3          2.6643   -0.6386    3.8753 C.3     1  LIG1        0.0000
      4 C4          3.3909    0.0575    2.7360 C.3     1  LIG1        0.0000
      5 N5          2.9252    1.4484    2.6350 N.pl3   1  LIG1        0.0000
      6 C6          1.8774    1.8774    1.8774 C.2     1  LIG1        0.0000
      7 C7          1.0000    1.0000    1.0000 C.3     1  LIG1        0.0000
      8 C8         -0.0543    1.8575    0.3191 C.3     1  LIG1        0.0000
      9 C9         -0.9318    0.9800   -0.5584 C.2     1  LIG1        0.0000
     10 O10        -0.7258   -0.2004   -0.6232 O.2     1  LIG1        0.0000
     11 N11        -1.9580    1.5366   -1.2754 N.am    1  LIG1        0.0000
     12 C12        -2.7665    0.7281   -2.0839 C.3     1  LIG1        0.0000
     13 C13        -4.1345    0.6568   -1.8420 C.3     1  LIG1        0.0000
     14 C14        -4.9249   -0.1504   -2.6540 C.3     1  LIG1        0.0000
     15 C15        -4.3446   -0.8737   -3.6915 C.3     1  LIG1        0.0000
     16 C16        -5.2140   -1.7549   -4.5739 C.3     1  LIG1        0.0000
     17 C17        -2.9774   -0.8044   -3.9369 C.3     1  LIG1        0.0000
     18 C18        -2.1914    0.0042   -3.1231 C.3     1  LIG1        0.0000
     19 O19        -0.8624    0.0831   -3.3471 O.2     1  LIG1        0.0000
     20 N20         1.7463    3.1753    2.0254 N.2     1  LIG1        0.0000
     21 C21         2.7176    3.5958    2.8877 C.3     1  LIG1        0.0000
     22 C22         3.0056    4.8696    3.3662 C.3     1  LIG1        0.0000
     23 C23         4.0579    5.0811    4.2514 C.3     1  LIG1        0.0000
     24 S24         4.4181    6.6752    4.8502 S.O2    1  LIG1        0.0000
     25 O25         3.2063    7.4510    4.9091 O.2     1  LIG1        0.0000
     26 O26         4.9886    6.5753    6.1686 O.2     1  LIG1        0.0000
     27 N27         5.5666    7.4616    3.7718 N.3     1  LIG1        0.0000
     28 C28         5.0553    7.5195    2.3956 C.3     1  LIG1        0.0000
     29 C29         5.9161    8.5634    1.7167 C.3     1  LIG1        0.0000
     30 C30         6.3513    9.4742    2.8431 C.3     1  LIG1        0.0000
     31 C31         5.6931    8.8909    4.0785 C.3     1  LIG1        0.0000
     32 C32         4.8269    3.9946    4.6568 C.3     1  LIG1        0.0000
     33 C33         4.5252    2.7276    4.1688 C.3     1  LIG1        0.0000
     34 C34         3.4719    2.5159    3.2836 C.3     1  LIG1        0.0000
     35 H           2.7358   -3.7187    5.1877 H       1  LIG1        0.0000
     36 H           2.6085   -2.2946    5.9766 H       1  LIG1        0.0000
     37 H           1.4349   -2.7626    4.9421 H       1  LIG1        0.0000
     38 H           4.1299   -2.0866    4.1566 H       1  LIG1        0.0000
     39 H           2.9562   -2.5546    3.1221 H       1  LIG1        0.0000
     40 H           1.6801   -0.6286    3.6984 H       1  LIG1        0.0000
     41 H           2.8537   -0.1605    4.7329 H       1  LIG1        0.0000
     42 H           4.3750    0.0475    2.9129 H       1  LIG1        0.0000
     43 H           3.2014   -0.4206    1.8784 H       1  LIG1        0.0000
     44 H           0.5521    0.3064    1.5642 H       1  LIG1        0.0000
     45 H           1.5642    0.5521    0.3064 H       1  LIG1        0.0000
     46 H          -0.6184    2.3055    1.0127 H       1  LIG1        0.0000
     47 H           0.3937    2.5511   -0.2450 H       1  LIG1        0.0000
     48 H          -2.1296    2.5203   -1.2214 H       1  LIG1        0.0000
     49 H          -4.5444    1.1789   -1.0942 H       1  LIG1        0.0000
     50 H          -5.9099   -0.2108   -2.4920 H       1  LIG1        0.0000
     51 H          -6.1649   -1.6959   -4.2702 H       1  LIG1        0.0000
     52 H          -5.1472   -1.4459   -5.5226 H       1  LIG1        0.0000
     53 H          -4.9016   -2.7027   -4.5093 H       1  LIG1        0.0000
     54 H          -2.5671   -1.3263   -4.6848 H       1  LIG1        0.0000
     55 H          -0.4496   -0.4376   -4.0944 H       1  LIG1        0.0000
     56 H           2.4481    5.6450    3.0695 H       1  LIG1        0.0000
     57 H           4.0937    7.7937    2.3867 H       1  LIG1        0.0000
     58 H           5.1530    6.6324    1.9443 H       1  LIG1        0.0000
     59 H           5.3882    9.0697    1.0348 H       1  LIG1        0.0000
     60 H           6.7080    8.1392    1.2774 H       1  LIG1        0.0000
     61 H           7.3468    9.4692    2.9372 H       1  LIG1        0.0000
     62 H           6.0363   10.4097    2.6830 H       1  LIG1        0.0000
     63 H           6.2654    9.0319    4.8863 H       1  LIG1        0.0000
     64 H           4.7946    9.3028    4.2306 H       1  LIG1        0.0000
     65 H           5.5882    4.1234    5.2923 H       1  LIG1        0.0000
     66 H           5.0794    1.9483    4.4614 H       1  LIG1        0.0000
@<TRIPOS>BOND
     1     1     2    1
     2     2     3    1
     3     3     4    1
     4     4     5    1
     5     5     6    1
     6     6     7    1
     7     7     8    1
     8     8     9    1
     9     9    10    2
    10     9    11   am
    11    11    12    1
    12    12    13   ar
    13    13    14   ar
    14    14    15   ar
    15    15    16    1
    16    15    17   ar
    17    17    18   ar
    18    18    12   ar
    19    18    19    1
    20     6    20    2
    21    20    21    1
    22    21    22   ar
    23    22    23   ar
    24    23    24    1
    25    24    25    2
    26    24    26    2
    27    24    27    1
    28    27    28    1
    29    28    29    1
    30    29    30    1
    31    30    31    1
    32    31    27    1
    33    23    32   ar
    34    32    33   ar
    35    33    34   ar
    36    34    21   ar
    37    34     5    1
    38     1    35    1
    39     1    36    1
    40     1    37    1
    41     2    38    1
    42     2    39    1
    43     3    40    1
    44     3    41    1
    45     4    42    1
    46     4    43    1
    47     7    44    1
    48     7    45    1
    49     8    46    1
    50     8    47    1
    51    11    48    1
    52    13    49    1
    53    14    50    1
    54    16    51    1
    55    16    52    1
    56    16    53    1
    57    17    54    1
    58    19    55    1
    59    22    56    1
    60    28    57    1
    61    28    58    1
    62    29    59    1
    63    29    60    1
    64    30    61    1
    65    30    62    1
    66    31    63    1
    67    31    64    1
    68    32    65    1
    69    33    66    1
