@<TRIPOS>MOLECULE
*****
 66 69 0 0 0
SMALL
USER_CHARGES

@<TRIPOS>ATOM
      1 C1          5.9674   -1.9056    0.7012 C.3     1  LIG1        0.0000
      2 C2          4.9198   -1.6430    1.7708 C.3     1  LIG1        0.0000
      3 C3          4.4384   -0.2051    1.6664 C.3     1  LIG1        0.0000
      4 C4          3.3909    0.0575    2.7360 C.3     1  LIG1        0.0000
      5 N5          2.9252    1.4484    2.6350 N.pl3   1  LIG1        0.0000
      6 C6          1.8774    1.8774    1.8774 C.2     1  LIG1        0.0000
      7 C7          1.0000    1.0000    1.0000 C.3     1  LIG1        0.0000
      8 C8         -0.0543    1.8575    0.3191 C.3     1  LIG1        0.0000
      9 C9         -0.9318    0.9800   -0.5584 C.2     1  LIG1        0.0000
     10 O10        -0.7258   -0.2004   -0.6232 O.2     1  LIG1        0.0000
     11 N11        -1.9580    1.5366   -1.2754 N.am    1  LIG1        0.0000
     12 C12        -2.7665    0.7281   -2.0839 C.3     1  LIG1        0.0000
     13 C13        -2.2361   -0.4196   -2.6640 C.3     1  LIG1        0.0000
     14 C14        -3.0517   -1.2132   -3.4644 C.3     1  LIG1        0.0000
     15 C15        -4.3793   -0.8540   -3.6764 C.3     1  LIG1        0.0000
     16 C16        -5.2645   -1.7248   -4.5535 C.3     1  LIG1        0.0000
     17 C17        -4.9133    0.2923   -3.0977 C.3     1  LIG1        0.0000
     18 C18        -4.0944    1.0821   -2.2979 C.3     1  LIG1        0.0000
     19 O19        -4.5964    2.1984   -1.7284 O.2     1  LIG1        0.0000
     20 N20         1.7463    3.1753    2.0254 N.2     1  LIG1        0.0000
     21 C21         2.7176    3.5958    2.8877 C.3     1  LIG1        0.0000
     22 C22         3.0056    4.8696    3.3662 C.3     1  LIG1        0.0000
     23 C23         4.0579    5.0811    4.2514 C.3     1  LIG1        0.0000
     24 S24         4.4181    6.6752    4.8502 S.O2    1  LIG1        0.0000
     25 O25         5.8285    6.7788    5.1215 O.2     1  LIG1        0.0000
     26 O26         4.0462    7.6545    3.8620 O.2     1  LIG1        0.0000
     27 N27         3.5130    6.9638    6.3315 N.3     1  LIG1        0.0000
     28 C28         3.8143    5.9380    7.3356 C.3     1  LIG1        0.0000
     29 C29         2.7116    6.1439    8.3534 C.3     1  LIG1        0.0000
     30 C30         1.5329    6.6265    7.5330 C.3     1  LIG1        0.0000
     31 C31         2.0717    6.7867    6.1227 C.3     1  LIG1        0.0000
     32 C32         4.8269    3.9946    4.6568 C.3     1  LIG1        0.0000
     33 C33         4.5252    2.7276    4.1688 C.3     1  LIG1        0.0000
     34 C34         3.4719    2.5159    3.2836 C.3     1  LIG1        0.0000
     35 H           6.2841   -2.8516    0.7699 H       1  LIG1        0.0000
     36 H           5.5668   -1.7530   -0.2023 H       1  LIG1        0.0000
     37 H           6.7404   -1.2849    0.8322 H       1  LIG1        0.0000
     38 H           4.1468   -2.2637    1.6398 H       1  LIG1        0.0000
     39 H           5.3204   -1.7957    2.6743 H       1  LIG1        0.0000
     40 H           5.2114    0.4156    1.7974 H       1  LIG1        0.0000
     41 H           4.0378   -0.0524    0.7629 H       1  LIG1        0.0000
     42 H           2.6178   -0.5632    2.6050 H       1  LIG1        0.0000
     43 H           3.7914   -0.0951    3.6395 H       1  LIG1        0.0000
     44 H           0.5521    0.3064    1.5642 H       1  LIG1        0.0000
     45 H           1.5642    0.5521    0.3064 H       1  LIG1        0.0000
     46 H          -0.6184    2.3055    1.0127 H       1  LIG1        0.0000
     47 H           0.3937    2.5511   -0.2450 H       1  LIG1        0.0000
     48 H          -2.1296    2.5203   -1.2214 H       1  LIG1        0.0000
     49 H          -1.2810   -0.6711   -2.5076 H       1  LIG1        0.0000
     50 H          -2.6841   -2.0414   -3.8873 H       1  LIG1        0.0000
     51 H          -4.7362   -2.5040   -4.8908 H       1  LIG1        0.0000
     52 H          -6.0417   -2.0557   -4.0183 H       1  LIG1        0.0000
     53 H          -5.5978   -1.1876   -5.3282 H       1  LIG1        0.0000
     54 H          -5.8685    0.5441   -3.2538 H       1  LIG1        0.0000
     55 H          -5.5513    2.4524   -1.8827 H       1  LIG1        0.0000
     56 H           2.4481    5.6450    3.0695 H       1  LIG1        0.0000
     57 H           4.7153    6.0851    7.7438 H       1  LIG1        0.0000
     58 H           3.7737    5.0209    6.9390 H       1  LIG1        0.0000
     59 H           2.9775    6.8304    9.0301 H       1  LIG1        0.0000
     60 H           2.4928    5.2856    8.8176 H       1  LIG1        0.0000
     61 H           0.7932    5.9539    7.5519 H       1  LIG1        0.0000
     62 H           1.1970    7.5014    7.8820 H       1  LIG1        0.0000
     63 H           1.8866    5.9718    5.5735 H       1  LIG1        0.0000
     64 H           1.6733    7.5876    5.6756 H       1  LIG1        0.0000
     65 H           5.5882    4.1234    5.2923 H       1  LIG1        0.0000
     66 H           5.0794    1.9483    4.4614 H       1  LIG1        0.0000
@<TRIPOS>BOND
     1     1     2    1
     2     2     3    1
     3     3     4    1
     4     4     5    1
     5     5     6    1
     6     6     7    1
     7     7     8    1
     8     8     9    1
     9     9    10    2
    10     9    11   am
    11    11    12    1
    12    12    13   ar
    13    13    14   ar
    14    14    15   ar
    15    15    16    1
    16    15    17   ar
    17    17    18   ar
    18    18    12   ar
    19    18    19    1
    20     6    20    2
    21    20    21    1
    22    21    22   ar
    23    22    23   ar
    24    23    24    1
    25    24    25    2
    26    24    26    2
    27    24    27    1
    28    27    28    1
    29    28    29    1
    30    29    30    1
    31    30    31    1
    32    31    27    1
    33    23    32   ar
    34    32    33   ar
    35    33    34   ar
    36    34    21   ar
    37    34     5    1
    38     1    35    1
    39     1    36    1
    40     1    37    1
    41     2    38    1
    42     2    39    1
    43     3    40    1
    44     3    41    1
    45     4    42    1
    46     4    43    1
    47     7    44    1
    48     7    45    1
    49     8    46    1
    50     8    47    1
    51    11    48    1
    52    13    49    1
    53    14    50    1
    54    16    51    1
    55    16    52    1
    56    16    53    1
    57    17    54    1
    58    19    55    1
    59    22    56    1
    60    28    57    1
    61    28    58    1
    62    29    59    1
    63    29    60    1
    64    30    61    1
    65    30    62    1
    66    31    63    1
    67    31    64    1
    68    32    65    1
    69    33    66    1
