@<TRIPOS>MOLECULE
*****
 66 69 0 0 0
SMALL
USER_CHARGES

@<TRIPOS>ATOM
      1 C1          0.0826   -1.4528    6.1331 C.3     1  LIG1        0.0000
      2 C2         -0.2885   -0.1355    5.4716 C.3     1  LIG1        0.0000
      3 C3          0.8861    0.3662    4.6475 C.3     1  LIG1        0.0000
      4 C4          0.5150    1.6834    3.9860 C.3     1  LIG1        0.0000
      5 N5          1.6511    2.1687    3.1888 N.pl3   1  LIG1        0.0000
      6 C6          1.8774    1.8774    1.8774 C.2     1  LIG1        0.0000
      7 C7          1.0000    1.0000    1.0000 C.3     1  LIG1        0.0000
      8 C8         -0.0543    1.8575    0.3191 C.3     1  LIG1        0.0000
      9 C9         -0.9318    0.9800   -0.5584 C.2     1  LIG1        0.0000
     10 O10        -0.7258   -0.2004   -0.6232 O.2     1  LIG1        0.0000
     11 N11        -1.9580    1.5366   -1.2754 N.am    1  LIG1        0.0000
     12 C12        -2.7665    0.7281   -2.0839 C.3     1  LIG1        0.0000
     13 C13        -2.2361   -0.4196   -2.6640 C.3     1  LIG1        0.0000
     14 C14        -3.0517   -1.2132   -3.4644 C.3     1  LIG1        0.0000
     15 C15        -4.3793   -0.8540   -3.6764 C.3     1  LIG1        0.0000
     16 C16        -5.2645   -1.7248   -4.5535 C.3     1  LIG1        0.0000
     17 C17        -4.9133    0.2923   -3.0977 C.3     1  LIG1        0.0000
     18 C18        -4.0944    1.0821   -2.2979 C.3     1  LIG1        0.0000
     19 O19        -4.5964    2.1984   -1.7284 O.2     1  LIG1        0.0000
     20 N20         2.9796    2.4768    1.4907 N.2     1  LIG1        0.0000
     21 C21         3.4759    3.1653    2.5600 C.3     1  LIG1        0.0000
     22 C22         4.6152    3.9553    2.6709 C.3     1  LIG1        0.0000
     23 C23         4.9425    4.5752    3.8728 C.3     1  LIG1        0.0000
     24 S24         6.3682    5.5640    4.0113 S.O2    1  LIG1        0.0000
     25 O25         6.8664    5.5014    5.3610 O.2     1  LIG1        0.0000
     26 O26         7.3772    5.0812    3.1044 O.2     1  LIG1        0.0000
     27 N27         5.9676    7.2310    3.6102 N.3     1  LIG1        0.0000
     28 C28         4.8875    7.7424    4.4649 C.3     1  LIG1        0.0000
     29 C29         4.9597    9.2461    4.3054 C.3     1  LIG1        0.0000
     30 C30         6.4090    9.5132    3.9647 C.3     1  LIG1        0.0000
     31 C31         7.0590    8.1431    3.9709 C.3     1  LIG1        0.0000
     32 C32         4.1105    4.3946    4.9733 C.3     1  LIG1        0.0000
     33 C33         2.9751    3.6014    4.8451 C.3     1  LIG1        0.0000
     34 C34         2.6472    2.9818    3.6424 C.3     1  LIG1        0.0000
     35 H          -0.6901   -1.7828    6.6753 H       1  LIG1        0.0000
     36 H           0.3086   -2.1269    5.4299 H       1  LIG1        0.0000
     37 H           0.8736   -1.3152    6.7293 H       1  LIG1        0.0000
     38 H          -1.0794   -0.2731    4.8754 H       1  LIG1        0.0000
     39 H          -0.5144    0.5386    6.1748 H       1  LIG1        0.0000
     40 H           1.6770    0.5038    5.2437 H       1  LIG1        0.0000
     41 H           1.1120   -0.3080    3.9443 H       1  LIG1        0.0000
     42 H          -0.2759    1.5458    3.3898 H       1  LIG1        0.0000
     43 H           0.2891    2.3575    4.6892 H       1  LIG1        0.0000
     44 H           0.5521    0.3064    1.5642 H       1  LIG1        0.0000
     45 H           1.5642    0.5521    0.3064 H       1  LIG1        0.0000
     46 H          -0.6184    2.3055    1.0127 H       1  LIG1        0.0000
     47 H           0.3937    2.5511   -0.2450 H       1  LIG1        0.0000
     48 H          -2.1296    2.5203   -1.2214 H       1  LIG1        0.0000
     49 H          -1.2810   -0.6711   -2.5076 H       1  LIG1        0.0000
     50 H          -2.6841   -2.0414   -3.8873 H       1  LIG1        0.0000
     51 H          -4.7362   -2.5040   -4.8908 H       1  LIG1        0.0000
     52 H          -6.0417   -2.0557   -4.0183 H       1  LIG1        0.0000
     53 H          -5.5978   -1.1876   -5.3282 H       1  LIG1        0.0000
     54 H          -5.8685    0.5441   -3.2538 H       1  LIG1        0.0000
     55 H          -5.5513    2.4524   -1.8827 H       1  LIG1        0.0000
     56 H           5.2078    4.0796    1.8751 H       1  LIG1        0.0000
     57 H           5.0367    7.4802    5.4183 H       1  LIG1        0.0000
     58 H           4.0005    7.3964    4.1590 H       1  LIG1        0.0000
     59 H           4.7047    9.7057    5.1561 H       1  LIG1        0.0000
     60 H           4.3593    9.5538    3.5673 H       1  LIG1        0.0000
     61 H           6.4877    9.9377    3.0627 H       1  LIG1        0.0000
     62 H           6.8297   10.1071    4.6505 H       1  LIG1        0.0000
     63 H           7.7976    8.0970    3.2984 H       1  LIG1        0.0000
     64 H           7.4196    7.9248    4.8777 H       1  LIG1        0.0000
     65 H           4.3264    4.8304    5.8470 H       1  LIG1        0.0000
     66 H           2.3788    3.4729    5.6375 H       1  LIG1        0.0000
@<TRIPOS>BOND
     1     1     2    1
     2     2     3    1
     3     3     4    1
     4     4     5    1
     5     5     6    1
     6     6     7    1
     7     7     8    1
     8     8     9    1
     9     9    10    2
    10     9    11   am
    11    11    12    1
    12    12    13   ar
    13    13    14   ar
    14    14    15   ar
    15    15    16    1
    16    15    17   ar
    17    17    18   ar
    18    18    12   ar
    19    18    19    1
    20     6    20    2
    21    20    21    1
    22    21    22   ar
    23    22    23   ar
    24    23    24    1
    25    24    25    2
    26    24    26    2
    27    24    27    1
    28    27    28    1
    29    28    29    1
    30    29    30    1
    31    30    31    1
    32    31    27    1
    33    23    32   ar
    34    32    33   ar
    35    33    34   ar
    36    34    21   ar
    37    34     5    1
    38     1    35    1
    39     1    36    1
    40     1    37    1
    41     2    38    1
    42     2    39    1
    43     3    40    1
    44     3    41    1
    45     4    42    1
    46     4    43    1
    47     7    44    1
    48     7    45    1
    49     8    46    1
    50     8    47    1
    51    11    48    1
    52    13    49    1
    53    14    50    1
    54    16    51    1
    55    16    52    1
    56    16    53    1
    57    17    54    1
    58    19    55    1
    59    22    56    1
    60    28    57    1
    61    28    58    1
    62    29    59    1
    63    29    60    1
    64    30    61    1
    65    30    62    1
    66    31    63    1
    67    31    64    1
    68    32    65    1
    69    33    66    1
