@<TRIPOS>MOLECULE
*****
 66 69 0 0 0
SMALL
USER_CHARGES

@<TRIPOS>ATOM
      1 C1         -2.9678    3.1473    4.5859 C.3     1  LIG1        0.0000
      2 C2         -1.8137    2.1645    4.6980 C.3     1  LIG1        0.0000
      3 C3         -0.6391    2.6662    3.8739 C.3     1  LIG1        0.0000
      4 C4          0.5150    1.6834    3.9860 C.3     1  LIG1        0.0000
      5 N5          1.6511    2.1687    3.1888 N.pl3   1  LIG1        0.0000
      6 C6          1.8774    1.8774    1.8774 C.2     1  LIG1        0.0000
      7 C7          1.0000    1.0000    1.0000 C.3     1  LIG1        0.0000
      8 C8         -0.0543    1.8575    0.3191 C.3     1  LIG1        0.0000
      9 C9         -0.9318    0.9800   -0.5584 C.2     1  LIG1        0.0000
     10 O10        -0.7258   -0.2004   -0.6232 O.2     1  LIG1        0.0000
     11 N11        -1.9580    1.5366   -1.2754 N.am    1  LIG1        0.0000
     12 C12        -2.7665    0.7281   -2.0839 C.3     1  LIG1        0.0000
     13 C13        -3.4934   -0.3121   -1.5143 C.3     1  LIG1        0.0000
     14 C14        -4.2926   -1.1065   -2.3302 C.3     1  LIG1        0.0000
     15 C15        -4.3563   -0.8559   -3.6975 C.3     1  LIG1        0.0000
     16 C16        -5.2304   -1.7289   -4.5834 C.3     1  LIG1        0.0000
     17 C17        -3.6316    0.1835   -4.2706 C.3     1  LIG1        0.0000
     18 C18        -2.8346    0.9753   -3.4510 C.3     1  LIG1        0.0000
     19 O19        -2.1242    1.9885   -3.9908 O.2     1  LIG1        0.0000
     20 N20         2.9796    2.4768    1.4907 N.2     1  LIG1        0.0000
     21 C21         3.4759    3.1653    2.5600 C.3     1  LIG1        0.0000
     22 C22         4.6152    3.9553    2.6709 C.3     1  LIG1        0.0000
     23 C23         4.9425    4.5752    3.8728 C.3     1  LIG1        0.0000
     24 S24         6.3682    5.5640    4.0113 S.O2    1  LIG1        0.0000
     25 O25         6.6564    6.1719    2.7381 O.2     1  LIG1        0.0000
     26 O26         6.1456    6.5921    4.9947 O.2     1  LIG1        0.0000
     27 N27         7.7304    4.5638    4.5059 N.3     1  LIG1        0.0000
     28 C28         7.9484    3.4545    3.5674 C.3     1  LIG1        0.0000
     29 C29         9.3517    2.9742    3.8703 C.3     1  LIG1        0.0000
     30 C30        10.0513    4.1974    4.4198 C.3     1  LIG1        0.0000
     31 C31         8.9993    5.2886    4.3746 C.3     1  LIG1        0.0000
     32 C32         4.1105    4.3946    4.9733 C.3     1  LIG1        0.0000
     33 C33         2.9751    3.6014    4.8451 C.3     1  LIG1        0.0000
     34 C34         2.6472    2.9818    3.6424 C.3     1  LIG1        0.0000
     35 H          -3.7405    2.8172    5.1281 H       1  LIG1        0.0000
     36 H          -2.6785    4.0414    4.9277 H       1  LIG1        0.0000
     37 H          -3.2436    3.2297    3.6282 H       1  LIG1        0.0000
     38 H          -1.5379    2.0820    5.6557 H       1  LIG1        0.0000
     39 H          -2.1029    1.2703    4.3563 H       1  LIG1        0.0000
     40 H          -0.9149    2.7486    2.9162 H       1  LIG1        0.0000
     41 H          -0.3499    3.5603    4.2156 H       1  LIG1        0.0000
     42 H           0.7908    1.6010    4.9437 H       1  LIG1        0.0000
     43 H           0.2258    0.7892    3.6442 H       1  LIG1        0.0000
     44 H           0.5521    0.3064    1.5642 H       1  LIG1        0.0000
     45 H           1.5642    0.5521    0.3064 H       1  LIG1        0.0000
     46 H          -0.6184    2.3055    1.0127 H       1  LIG1        0.0000
     47 H           0.3937    2.5511   -0.2450 H       1  LIG1        0.0000
     48 H          -2.1296    2.5203   -1.2214 H       1  LIG1        0.0000
     49 H          -3.4422   -0.4866   -0.5309 H       1  LIG1        0.0000
     50 H          -4.8211   -1.8574   -1.9342 H       1  LIG1        0.0000
     51 H          -5.6816   -2.4247   -4.0246 H       1  LIG1        0.0000
     52 H          -5.9214   -1.1622   -5.0321 H       1  LIG1        0.0000
     53 H          -4.6632   -2.1741   -5.2763 H       1  LIG1        0.0000
     54 H          -3.6826    0.3583   -5.2539 H       1  LIG1        0.0000
     55 H          -2.1736    2.1657   -4.9737 H       1  LIG1        0.0000
     56 H           5.2078    4.0796    1.8751 H       1  LIG1        0.0000
     57 H           7.8798    3.7726    2.6218 H       1  LIG1        0.0000
     58 H           7.2833    2.7241    3.7225 H       1  LIG1        0.0000
     59 H           9.8032    2.6508    3.0387 H       1  LIG1        0.0000
     60 H           9.3365    2.2395    4.5485 H       1  LIG1        0.0000
     61 H          10.3557    4.0385    5.3591 H       1  LIG1        0.0000
     62 H          10.8373    4.4403    3.8513 H       1  LIG1        0.0000
     63 H           9.1213    5.9316    5.1307 H       1  LIG1        0.0000
     64 H           9.0377    5.7837    3.5065 H       1  LIG1        0.0000
     65 H           4.3264    4.8304    5.8470 H       1  LIG1        0.0000
     66 H           2.3788    3.4729    5.6375 H       1  LIG1        0.0000
@<TRIPOS>BOND
     1     1     2    1
     2     2     3    1
     3     3     4    1
     4     4     5    1
     5     5     6    1
     6     6     7    1
     7     7     8    1
     8     8     9    1
     9     9    10    2
    10     9    11   am
    11    11    12    1
    12    12    13   ar
    13    13    14   ar
    14    14    15   ar
    15    15    16    1
    16    15    17   ar
    17    17    18   ar
    18    18    12   ar
    19    18    19    1
    20     6    20    2
    21    20    21    1
    22    21    22   ar
    23    22    23   ar
    24    23    24    1
    25    24    25    2
    26    24    26    2
    27    24    27    1
    28    27    28    1
    29    28    29    1
    30    29    30    1
    31    30    31    1
    32    31    27    1
    33    23    32   ar
    34    32    33   ar
    35    33    34   ar
    36    34    21   ar
    37    34     5    1
    38     1    35    1
    39     1    36    1
    40     1    37    1
    41     2    38    1
    42     2    39    1
    43     3    40    1
    44     3    41    1
    45     4    42    1
    46     4    43    1
    47     7    44    1
    48     7    45    1
    49     8    46    1
    50     8    47    1
    51    11    48    1
    52    13    49    1
    53    14    50    1
    54    16    51    1
    55    16    52    1
    56    16    53    1
    57    17    54    1
    58    19    55    1
    59    22    56    1
    60    28    57    1
    61    28    58    1
    62    29    59    1
    63    29    60    1
    64    30    61    1
    65    30    62    1
    66    31    63    1
    67    31    64    1
    68    32    65    1
    69    33    66    1
