@<TRIPOS>MOLECULE
*****
 66 69 0 0 0
SMALL
USER_CHARGES

@<TRIPOS>ATOM
      1 C1          6.1447    0.0297   -1.4090 C.3     1  LIG1        0.0000
      2 C2          5.1795    1.2014   -1.3321 C.3     1  LIG1        0.0000
      3 C3          4.5731    1.2678    0.0601 C.3     1  LIG1        0.0000
      4 C4          3.6079    2.4395    0.1369 C.3     1  LIG1        0.0000
      5 N5          3.0213    2.5037    1.4836 N.pl3   1  LIG1        0.0000
      6 C6          1.8774    1.8774    1.8774 C.2     1  LIG1        0.0000
      7 C7          1.0000    1.0000    1.0000 C.3     1  LIG1        0.0000
      8 C8         -0.0543    1.8575    0.3191 C.3     1  LIG1        0.0000
      9 C9         -0.9318    0.9800   -0.5584 C.2     1  LIG1        0.0000
     10 O10        -0.7258   -0.2004   -0.6232 O.2     1  LIG1        0.0000
     11 N11        -1.9580    1.5366   -1.2754 N.am    1  LIG1        0.0000
     12 C12        -2.7665    0.7281   -2.0839 C.3     1  LIG1        0.0000
     13 C13        -2.8378    0.9700   -3.4519 C.3     1  LIG1        0.0000
     14 C14        -3.6450    0.1581   -4.2424 C.3     1  LIG1        0.0000
     15 C15        -4.3682   -0.8795   -3.6620 C.3     1  LIG1        0.0000
     16 C16        -5.2495   -1.7618   -4.5314 C.3     1  LIG1        0.0000
     17 C17        -4.2990   -1.1249   -2.2949 C.3     1  LIG1        0.0000
     18 C18        -3.4903   -0.3110   -1.5089 C.3     1  LIG1        0.0000
     19 O19        -3.4115   -0.5351   -0.1799 O.2     1  LIG1        0.0000
     20 N20         1.6518    2.1546    3.1407 N.2     1  LIG1        0.0000
     21 C21         2.6582    2.9688    3.5741 C.3     1  LIG1        0.0000
     22 C22         2.8791    3.5390    4.8233 C.3     1  LIG1        0.0000
     23 C23         3.9845    4.3518    5.0542 C.3     1  LIG1        0.0000
     24 S24         4.2608    5.0650    6.6177 S.O2    1  LIG1        0.0000
     25 O25         3.7212    4.2057    7.6394 O.2     1  LIG1        0.0000
     26 O26         5.6760    5.2295    6.8269 O.2     1  LIG1        0.0000
     27 N27         3.4701    6.6353    6.6941 N.3     1  LIG1        0.0000
     28 C28         2.0361    6.5120    6.4117 C.3     1  LIG1        0.0000
     29 C29         1.6256    7.9504    6.1737 C.3     1  LIG1        0.0000
     30 C30         2.8567    8.5939    5.5690 C.3     1  LIG1        0.0000
     31 C31         3.9285    7.5197    5.6171 C.3     1  LIG1        0.0000
     32 C32         4.8751    4.5910    4.0123 C.3     1  LIG1        0.0000
     33 C33         4.6393    4.0129    2.7693 C.3     1  LIG1        0.0000
     34 C34         3.5337    3.1992    2.5385 C.3     1  LIG1        0.0000
     35 H           6.5437   -0.0140   -2.3249 H       1  LIG1        0.0000
     36 H           6.8722    0.1523   -0.7340 H       1  LIG1        0.0000
     37 H           5.6531   -0.8201   -1.2187 H       1  LIG1        0.0000
     38 H           5.6711    2.0512   -1.5224 H       1  LIG1        0.0000
     39 H           4.4520    1.0788   -2.0071 H       1  LIG1        0.0000
     40 H           4.0815    0.4180    0.2504 H       1  LIG1        0.0000
     41 H           5.3006    1.3904    0.7351 H       1  LIG1        0.0000
     42 H           4.0995    3.2893   -0.0534 H       1  LIG1        0.0000
     43 H           2.8804    2.3169   -0.5381 H       1  LIG1        0.0000
     44 H           0.5521    0.3064    1.5642 H       1  LIG1        0.0000
     45 H           1.5642    0.5521    0.3064 H       1  LIG1        0.0000
     46 H          -0.6184    2.3055    1.0127 H       1  LIG1        0.0000
     47 H           0.3937    2.5511   -0.2450 H       1  LIG1        0.0000
     48 H          -2.1296    2.5203   -1.2214 H       1  LIG1        0.0000
     49 H          -2.3157    1.7179   -3.8619 H       1  LIG1        0.0000
     50 H          -3.7054    0.3200   -5.2273 H       1  LIG1        0.0000
     51 H          -5.1905   -1.4581   -5.4824 H       1  LIG1        0.0000
     52 H          -4.9405   -2.7105   -4.4647 H       1  LIG1        0.0000
     53 H          -6.1973   -1.6972   -4.2191 H       1  LIG1        0.0000
     54 H          -4.8209   -1.8727   -1.8846 H       1  LIG1        0.0000
     55 H          -3.9322   -1.2823    0.2329 H       1  LIG1        0.0000
     56 H           2.2339    3.3621    5.5666 H       1  LIG1        0.0000
     57 H           1.5465    6.1204    7.1907 H       1  LIG1        0.0000
     58 H           1.8743    5.9508    5.6000 H       1  LIG1        0.0000
     59 H           1.3793    8.3958    7.0345 H       1  LIG1        0.0000
     60 H           0.8531    7.9985    5.5405 H       1  LIG1        0.0000
     61 H           2.6799    8.8714    4.6247 H       1  LIG1        0.0000
     62 H           3.1348    9.3915    6.1043 H       1  LIG1        0.0000
     63 H           3.9824    7.0280    4.7480 H       1  LIG1        0.0000
     64 H           4.8218    7.9140    5.8329 H       1  LIG1        0.0000
     65 H           5.6762    5.1722    4.1556 H       1  LIG1        0.0000
     66 H           5.2807    4.1865    2.0220 H       1  LIG1        0.0000
@<TRIPOS>BOND
     1     1     2    1
     2     2     3    1
     3     3     4    1
     4     4     5    1
     5     5     6    1
     6     6     7    1
     7     7     8    1
     8     8     9    1
     9     9    10    2
    10     9    11   am
    11    11    12    1
    12    12    13   ar
    13    13    14   ar
    14    14    15   ar
    15    15    16    1
    16    15    17   ar
    17    17    18   ar
    18    18    12   ar
    19    18    19    1
    20     6    20    2
    21    20    21    1
    22    21    22   ar
    23    22    23   ar
    24    23    24    1
    25    24    25    2
    26    24    26    2
    27    24    27    1
    28    27    28    1
    29    28    29    1
    30    29    30    1
    31    30    31    1
    32    31    27    1
    33    23    32   ar
    34    32    33   ar
    35    33    34   ar
    36    34    21   ar
    37    34     5    1
    38     1    35    1
    39     1    36    1
    40     1    37    1
    41     2    38    1
    42     2    39    1
    43     3    40    1
    44     3    41    1
    45     4    42    1
    46     4    43    1
    47     7    44    1
    48     7    45    1
    49     8    46    1
    50     8    47    1
    51    11    48    1
    52    13    49    1
    53    14    50    1
    54    16    51    1
    55    16    52    1
    56    16    53    1
    57    17    54    1
    58    19    55    1
    59    22    56    1
    60    28    57    1
    61    28    58    1
    62    29    59    1
    63    29    60    1
    64    30    61    1
    65    30    62    1
    66    31    63    1
    67    31    64    1
    68    32    65    1
    69    33    66    1
