@<TRIPOS>MOLECULE

  54   57
SMALL
USER_CHARGES
@<TRIPOS>ATOM
   1 C1           3.8720     6.6545     4.3977 C.3          1    LIG   0.0000
   2 O2           3.7761     5.2780     4.0623 O.3          1    LIG   0.0000
   3 C3           2.8195     4.9674     3.2229 C.2          1    LIG   0.0000
   4 O4           2.0973     5.8238     2.7927 O.2          1    LIG   0.0000
   5 C5           2.6335     3.5886     2.8134 C.2          1    LIG   0.0000
   6 C6           3.4069     2.4855     3.2402 C.2          1    LIG   0.0000
   7 C7           2.8857     1.3973     2.6100 C.2          1    LIG   0.0000
   8 N8           1.8489     1.8489     1.8489 N.pl3        1    LIG   0.0000
   9 C9           1.0000     1.0000     1.0000 C.3          1    LIG   0.0000
  10 N10         -0.1499     0.5195     1.7812 N.pl3        1    LIG   0.0000
  11 N11         -1.3047     1.1325     1.8846 N.2          1    LIG   0.0000
  12 C12         -2.1105     0.4472     2.6518 C.2          1    LIG   0.0000
  13 C13         -3.4711     0.7972     3.0097 C.ar         1    LIG   0.0000
  14 C14         -3.7845     2.1228     3.2920 C.ar         1    LIG   0.0000
  15 C15         -5.0912     2.4537     3.6352 C.ar         1    LIG   0.0000
  16 C16         -6.0665     1.4641     3.6939 C.ar         1    LIG   0.0000
  17 C17         -7.4913     1.8343     4.0699 C.3          1    LIG   0.0000
  18 C18         -5.7446     0.1407     3.4088 C.ar         1    LIG   0.0000
  19 C19         -4.4407    -0.1991     3.0649 C.ar         1    LIG   0.0000
  20 C20         -1.4152    -0.7059     3.0728 C.2          1    LIG   0.0000
  21 C21         -1.9414    -1.8093     3.9751 C.3          1    LIG   0.0000
  22 C22         -0.1841    -0.6300     2.5094 C.2          1    LIG   0.0000
  23 C23          0.8875    -1.5953     2.6557 C.ar         1    LIG   0.0000
  24 C24          1.2508    -2.0263     3.9274 C.ar         1    LIG   0.0000
  25 C25          2.2798    -2.9524     4.0628 C.ar         1    LIG   0.0000
  26 C26          2.9332    -3.4356     2.9343 C.ar         1    LIG   0.0000
  27 C27          4.0563    -4.4467     3.0913 C.3          1    LIG   0.0000
  28 C28          2.5627    -2.9999     1.6657 C.ar         1    LIG   0.0000
  29 C29          1.5351    -2.0742     1.5212 C.ar         1    LIG   0.0000
  30 N30          1.7181     3.1473     1.9832 N.2          1    LIG   0.0000
  31 H            4.6269     6.7894     5.0396 H            1    LIG   0.0000
  32 H            4.0396     7.1886     3.5690 H            1    LIG   0.0000
  33 H            3.0171     6.9549     4.8207 H            1    LIG   0.0000
  34 H            4.1791     2.5011     3.8753 H            1    LIG   0.0000
  35 H            3.2015     0.4519     2.6897 H            1    LIG   0.0000
  36 H            0.6733     1.5311     0.2182 H            1    LIG   0.0000
  37 H            1.5311     0.2182     0.6733 H            1    LIG   0.0000
  38 H           -3.0785     2.8296     3.2488 H            1    LIG   0.0000
  39 H           -5.3293     3.4032     3.8397 H            1    LIG   0.0000
  40 H           -8.0614     1.0128     4.0653 H            1    LIG   0.0000
  41 H           -7.5000     2.2410     4.9834 H            1    LIG   0.0000
  42 H           -7.8502     2.4928     3.4084 H            1    LIG   0.0000
  43 H           -6.4509    -0.5660     3.4512 H            1    LIG   0.0000
  44 H           -4.2028    -1.1484     2.8596 H            1    LIG   0.0000
  45 H           -1.2310    -2.5011     4.1048 H            1    LIG   0.0000
  46 H           -2.1956    -1.4223     4.8615 H            1    LIG   0.0000
  47 H           -2.7440    -2.2308     3.5529 H            1    LIG   0.0000
  48 H            0.7775    -1.6745     4.7350 H            1    LIG   0.0000
  49 H            2.5497    -3.2707     4.9716 H            1    LIG   0.0000
  50 H            4.4157    -4.6883     2.1899 H            1    LIG   0.0000
  51 H            4.7873    -4.0494     3.6460 H            1    LIG   0.0000
  52 H            3.7052    -5.2678     3.5412 H            1    LIG   0.0000
  53 H            3.0355    -3.3524     0.8581 H            1    LIG   0.0000
  54 H            1.2646    -1.7565     0.6124 H            1    LIG   0.0000
@<TRIPOS>BOND
   1        1        2 1
   2        2        3 1
   3        3        4 2
   4        3        5 1
   5        5        6 1
   6        6        7 2
   7        7        8 1
   8        8        9 1
   9        9       10 1
  10       10       11 1
  11       11       12 2
  12       12       13 1
  13       13       14 ar
  14       14       15 ar
  15       15       16 ar
  16       16       17 1
  17       16       18 ar
  18       18       19 ar
  19       19       13 ar
  20       12       20 1
  21       20       21 1
  22       20       22 2
  23       22       10 1
  24       22       23 1
  25       23       24 ar
  26       24       25 ar
  27       25       26 ar
  28       26       27 1
  29       26       28 ar
  30       28       29 ar
  31       29       23 ar
  32        8       30 1
  33       30        5 2
  34        1       31 1
  35        1       32 1
  36        1       33 1
  37        6       34 1
  38        7       35 1
  39        9       36 1
  40        9       37 1
  41       14       38 1
  42       15       39 1
  43       17       40 1
  44       17       41 1
  45       17       42 1
  46       18       43 1
  47       19       44 1
  48       21       45 1
  49       21       46 1
  50       21       47 1
  51       24       48 1
  52       25       49 1
  53       27       50 1
  54       27       51 1
  55       27       52 1
  56       28       53 1
  57       29       54 1

@<TRIPOS>MOLECULE

  54   57
SMALL
USER_CHARGES
@<TRIPOS>ATOM
   1 C1           3.8720     6.6545     4.3977 C.3          1    LIG   0.0000
   2 O2           3.7761     5.2780     4.0623 O.3          1    LIG   0.0000
   3 C3           2.8195     4.9674     3.2229 C.2          1    LIG   0.0000
   4 O4           2.0973     5.8238     2.7927 O.2          1    LIG   0.0000
   5 C5           2.6335     3.5886     2.8134 C.2          1    LIG   0.0000
   6 C6           3.4069     2.4855     3.2402 C.2          1    LIG   0.0000
   7 C7           2.8857     1.3973     2.6100 C.2          1    LIG   0.0000
   8 N8           1.8489     1.8489     1.8489 N.pl3        1    LIG   0.0000
   9 C9           1.0000     1.0000     1.0000 C.3          1    LIG   0.0000
  10 N10         -0.1499     0.5195     1.7812 N.pl3        1    LIG   0.0000
  11 N11         -0.1794    -0.5884     2.4824 N.2          1    LIG   0.0000
  12 C12         -1.3458    -0.7272     3.0551 C.2          1    LIG   0.0000
  13 C13         -1.7668    -1.8217     3.9075 C.ar         1    LIG   0.0000
  14 C14         -1.3939    -3.1223     3.5847 C.ar         1    LIG   0.0000
  15 C15         -1.8005    -4.1692     4.4055 C.ar         1    LIG   0.0000
  16 C16         -2.5716    -3.9094     5.5333 C.ar         1    LIG   0.0000
  17 C17         -3.0116    -5.0588     6.4241 C.3          1    LIG   0.0000
  18 C18         -2.9392    -2.6051     5.8494 C.ar         1    LIG   0.0000
  19 C19         -2.5372    -1.5525     5.0344 C.ar         1    LIG   0.0000
  20 C20         -2.1298     0.3889     2.6942 C.2          1    LIG   0.0000
  21 C21         -3.5598     0.6749     3.1209 C.3          1    LIG   0.0000
  22 C22         -1.3493     1.1535     1.8911 C.2          1    LIG   0.0000
  23 C23         -1.7256     2.4094     1.2724 C.ar         1    LIG   0.0000
  24 C24         -2.2939     3.4122     2.0511 C.ar         1    LIG   0.0000
  25 C25         -2.6536     4.6154     1.4529 C.ar         1    LIG   0.0000
  26 C26         -2.4447     4.8045     0.0910 C.ar         1    LIG   0.0000
  27 C27         -2.8408     6.1216    -0.5543 C.3          1    LIG   0.0000
  28 C28         -1.8746     3.7964    -0.6803 C.ar         1    LIG   0.0000
  29 C29         -1.5121     2.5904    -0.0905 C.ar         1    LIG   0.0000
  30 N30          1.7181     3.1473     1.9832 N.2          1    LIG   0.0000
  31 H            4.6269     6.7894     5.0396 H            1    LIG   0.0000
  32 H            4.0396     7.1886     3.5690 H            1    LIG   0.0000
  33 H            3.0171     6.9549     4.8207 H            1    LIG   0.0000
  34 H            4.1791     2.5011     3.8753 H            1    LIG   0.0000
  35 H            3.2015     0.4519     2.6897 H            1    LIG   0.0000
  36 H            0.6733     1.5311     0.2182 H            1    LIG   0.0000
  37 H            1.5311     0.2182     0.6733 H            1    LIG   0.0000
  38 H           -0.8400    -3.3027     2.7719 H            1    LIG   0.0000
  39 H           -1.5383    -5.1086     4.1846 H            1    LIG   0.0000
  40 H           -3.5542    -4.7022     7.1846 H            1    LIG   0.0000
  41 H           -3.5644    -5.7001     5.8920 H            1    LIG   0.0000
  42 H           -2.2057    -5.5305     6.7819 H            1    LIG   0.0000
  43 H           -3.4925    -2.4247     6.6626 H            1    LIG   0.0000
  44 H           -2.7987    -0.6130     5.2557 H            1    LIG   0.0000
  45 H           -3.8628     1.5368     2.7145 H            1    LIG   0.0000
  46 H           -4.1547    -0.0670     2.8114 H            1    LIG   0.0000
  47 H           -3.6029     0.7429     4.1177 H            1    LIG   0.0000
  48 H           -2.4421     3.2697     3.0297 H            1    LIG   0.0000
  49 H           -3.0623     5.3443     2.0021 H            1    LIG   0.0000
  50 H           -2.6249     6.0929    -1.5303 H            1    LIG   0.0000
  51 H           -3.8225     6.2697    -0.4343 H            1    LIG   0.0000
  52 H           -2.3358     6.8693    -0.1231 H            1    LIG   0.0000
  53 H           -1.7256     3.9392    -1.6588 H            1    LIG   0.0000
  54 H           -1.1027     1.8617    -0.6395 H            1    LIG   0.0000
@<TRIPOS>BOND
   1        1        2 1
   2        2        3 1
   3        3        4 2
   4        3        5 1
   5        5        6 1
   6        6        7 2
   7        7        8 1
   8        8        9 1
   9        9       10 1
  10       10       11 1
  11       11       12 2
  12       12       13 1
  13       13       14 ar
  14       14       15 ar
  15       15       16 ar
  16       16       17 1
  17       16       18 ar
  18       18       19 ar
  19       19       13 ar
  20       12       20 1
  21       20       21 1
  22       20       22 2
  23       22       10 1
  24       22       23 1
  25       23       24 ar
  26       24       25 ar
  27       25       26 ar
  28       26       27 1
  29       26       28 ar
  30       28       29 ar
  31       29       23 ar
  32        8       30 1
  33       30        5 2
  34        1       31 1
  35        1       32 1
  36        1       33 1
  37        6       34 1
  38        7       35 1
  39        9       36 1
  40        9       37 1
  41       14       38 1
  42       15       39 1
  43       17       40 1
  44       17       41 1
  45       17       42 1
  46       18       43 1
  47       19       44 1
  48       21       45 1
  49       21       46 1
  50       21       47 1
  51       24       48 1
  52       25       49 1
  53       27       50 1
  54       27       51 1
  55       27       52 1
  56       28       53 1
  57       29       54 1

@<TRIPOS>MOLECULE

  54   57
SMALL
USER_CHARGES
@<TRIPOS>ATOM
   1 C1           2.2984     7.2174     3.2172 C.3          1    LIG   0.0000
   2 O2           2.0311     5.9022     2.7533 O.3          1    LIG   0.0000
   3 C3           2.8195     4.9674     3.2229 C.2          1    LIG   0.0000
   4 O4           3.6957     5.2520     3.9918 O.2          1    LIG   0.0000
   5 C5           2.6335     3.5886     2.8134 C.2          1    LIG   0.0000
   6 C6           3.4069     2.4855     3.2402 C.2          1    LIG   0.0000
   7 C7           2.8857     1.3973     2.6100 C.2          1    LIG   0.0000
   8 N8           1.8489     1.8489     1.8489 N.pl3        1    LIG   0.0000
   9 C9           1.0000     1.0000     1.0000 C.3          1    LIG   0.0000
  10 N10         -0.1499     0.5195     1.7812 N.pl3        1    LIG   0.0000
  11 N11         -0.4873    -0.7382     1.9371 N.2          1    LIG   0.0000
  12 C12         -1.5561    -0.8279     2.6836 C.2          1    LIG   0.0000
  13 C13         -2.2357    -2.0458     3.0795 C.ar         1    LIG   0.0000
  14 C14         -1.4863    -3.1642     3.4295 C.ar         1    LIG   0.0000
  15 C15         -2.1429    -4.3306     3.8083 C.ar         1    LIG   0.0000
  16 C16         -3.5328    -4.3693     3.8329 C.ar         1    LIG   0.0000
  17 C17         -4.2418    -5.6475     4.2476 C.3          1    LIG   0.0000
  18 C18         -4.2747    -3.2455     3.4822 C.ar         1    LIG   0.0000
  19 C19         -3.6265    -2.0754     3.1022 C.ar         1    LIG   0.0000
  20 C20         -1.9339     0.4836     3.0409 C.2          1    LIG   0.0000
  21 C21         -3.1151     0.8883     3.9068 C.3          1    LIG   0.0000
  22 C22         -1.0303     1.3083     2.4561 C.2          1    LIG   0.0000
  23 C23         -1.0089     2.7554     2.5402 C.ar         1    LIG   0.0000
  24 C24         -0.6916     3.5015     1.4099 C.ar         1    LIG   0.0000
  25 C25         -0.6721     4.8898     1.4955 C.ar         1    LIG   0.0000
  26 C26         -0.9668     5.5161     2.7017 C.ar         1    LIG   0.0000
  27 C27         -0.9429     7.0329     2.7865 C.3          1    LIG   0.0000
  28 C28         -1.2842     4.7621     3.8273 C.ar         1    LIG   0.0000
  29 C29         -1.3060     3.3738     3.7506 C.ar         1    LIG   0.0000
  30 N30          1.7181     3.1473     1.9832 N.2          1    LIG   0.0000
  31 H            1.6477     7.8551     2.8047 H            1    LIG   0.0000
  32 H            2.2065     7.2449     4.2126 H            1    LIG   0.0000
  33 H            3.2290     7.4786     2.9610 H            1    LIG   0.0000
  34 H            4.1791     2.5011     3.8753 H            1    LIG   0.0000
  35 H            3.2015     0.4519     2.6897 H            1    LIG   0.0000
  36 H            0.6733     1.5311     0.2182 H            1    LIG   0.0000
  37 H            1.5311     0.2182     0.6733 H            1    LIG   0.0000
  38 H           -0.4871    -3.1301     3.4091 H            1    LIG   0.0000
  39 H           -1.6154    -5.1411     4.0630 H            1    LIG   0.0000
  40 H           -5.2312    -5.5067     4.2113 H            1    LIG   0.0000
  41 H           -3.9873    -6.3871     3.6245 H            1    LIG   0.0000
  42 H           -3.9736    -5.8900     5.1799 H            1    LIG   0.0000
  43 H           -5.2739    -3.2794     3.5034 H            1    LIG   0.0000
  44 H           -4.1539    -1.2646     2.8483 H            1    LIG   0.0000
  45 H           -3.1401     1.8843     3.9921 H            1    LIG   0.0000
  46 H           -3.9632     0.5685     3.4842 H            1    LIG   0.0000
  47 H           -3.0194     0.4783     4.8138 H            1    LIG   0.0000
  48 H           -0.4800     3.0451     0.5456 H            1    LIG   0.0000
  49 H           -0.4463     5.4373     0.6898 H            1    LIG   0.0000
  50 H           -1.1759     7.3185     3.7160 H            1    LIG   0.0000
  51 H           -0.0286     7.3653     2.5550 H            1    LIG   0.0000
  52 H           -1.6083     7.4132     2.1442 H            1    LIG   0.0000
  53 H           -1.4967     5.2186     4.6913 H            1    LIG   0.0000
  54 H           -1.5326     2.8262     4.5561 H            1    LIG   0.0000
@<TRIPOS>BOND
   1        1        2 1
   2        2        3 1
   3        3        4 2
   4        3        5 1
   5        5        6 1
   6        6        7 2
   7        7        8 1
   8        8        9 1
   9        9       10 1
  10       10       11 1
  11       11       12 2
  12       12       13 1
  13       13       14 ar
  14       14       15 ar
  15       15       16 ar
  16       16       17 1
  17       16       18 ar
  18       18       19 ar
  19       19       13 ar
  20       12       20 1
  21       20       21 1
  22       20       22 2
  23       22       10 1
  24       22       23 1
  25       23       24 ar
  26       24       25 ar
  27       25       26 ar
  28       26       27 1
  29       26       28 ar
  30       28       29 ar
  31       29       23 ar
  32        8       30 1
  33       30        5 2
  34        1       31 1
  35        1       32 1
  36        1       33 1
  37        6       34 1
  38        7       35 1
  39        9       36 1
  40        9       37 1
  41       14       38 1
  42       15       39 1
  43       17       40 1
  44       17       41 1
  45       17       42 1
  46       18       43 1
  47       19       44 1
  48       21       45 1
  49       21       46 1
  50       21       47 1
  51       24       48 1
  52       25       49 1
  53       27       50 1
  54       27       51 1
  55       27       52 1
  56       28       53 1
  57       29       54 1

@<TRIPOS>MOLECULE

  54   57
SMALL
USER_CHARGES
@<TRIPOS>ATOM
   1 C1           6.0775     3.2950     5.5518 C.3          1    LIG   0.0000
   2 O2           4.9682     3.4662     4.6820 O.3          1    LIG   0.0000
   3 C3           4.5204     2.3725     4.1170 C.2          1    LIG   0.0000
   4 O4           5.0452     1.3187     4.3498 O.2          1    LIG   0.0000
   5 C5           3.3902     2.4351     3.2102 C.2          1    LIG   0.0000
   6 C6           2.6815     3.6029     2.8482 C.2          1    LIG   0.0000
   7 C7           1.7096     3.1980     1.9853 C.2          1    LIG   0.0000
   8 N8           1.8489     1.8489     1.8489 N.pl3        1    LIG   0.0000
   9 C9           1.0000     1.0000     1.0000 C.3          1    LIG   0.0000
  10 N10         -0.1499     0.5195     1.7812 N.pl3        1    LIG   0.0000
  11 N11         -1.3047     1.1325     1.8846 N.2          1    LIG   0.0000
  12 C12         -2.1105     0.4472     2.6518 C.2          1    LIG   0.0000
  13 C13         -3.4711     0.7972     3.0097 C.ar         1    LIG   0.0000
  14 C14         -3.7845     2.1228     3.2920 C.ar         1    LIG   0.0000
  15 C15         -5.0912     2.4537     3.6352 C.ar         1    LIG   0.0000
  16 C16         -6.0665     1.4641     3.6939 C.ar         1    LIG   0.0000
  17 C17         -7.4913     1.8343     4.0699 C.3          1    LIG   0.0000
  18 C18         -5.7446     0.1407     3.4088 C.ar         1    LIG   0.0000
  19 C19         -4.4407    -0.1991     3.0649 C.ar         1    LIG   0.0000
  20 C20         -1.4152    -0.7059     3.0728 C.2          1    LIG   0.0000
  21 C21         -1.9414    -1.8093     3.9751 C.3          1    LIG   0.0000
  22 C22         -0.1841    -0.6300     2.5094 C.2          1    LIG   0.0000
  23 C23          0.8875    -1.5953     2.6557 C.ar         1    LIG   0.0000
  24 C24          0.6267    -2.9446     2.4402 C.ar         1    LIG   0.0000
  25 C25          1.6581    -3.8671     2.5821 C.ar         1    LIG   0.0000
  26 C26          2.9320    -3.4366     2.9366 C.ar         1    LIG   0.0000
  27 C27          4.0527    -4.4510     3.0898 C.3          1    LIG   0.0000
  28 C28          3.1845    -2.0848     3.1492 C.ar         1    LIG   0.0000
  29 C29          2.1593    -1.1556     3.0096 C.ar         1    LIG   0.0000
  30 N30          2.8477     1.4184     2.5825 N.2          1    LIG   0.0000
  31 H            6.3437     4.1811     5.9310 H            1    LIG   0.0000
  32 H            5.8252     2.6762     6.2958 H            1    LIG   0.0000
  33 H            6.8447     2.9069     5.0411 H            1    LIG   0.0000
  34 H            2.8579     4.5359     3.1617 H            1    LIG   0.0000
  35 H            1.0272     3.7768     1.5390 H            1    LIG   0.0000
  36 H            0.6733     1.5311     0.2182 H            1    LIG   0.0000
  37 H            1.5311     0.2182     0.6733 H            1    LIG   0.0000
  38 H           -3.0785     2.8296     3.2488 H            1    LIG   0.0000
  39 H           -5.3293     3.4032     3.8397 H            1    LIG   0.0000
  40 H           -8.0614     1.0128     4.0653 H            1    LIG   0.0000
  41 H           -7.5000     2.2410     4.9834 H            1    LIG   0.0000
  42 H           -7.8502     2.4928     3.4084 H            1    LIG   0.0000
  43 H           -6.4509    -0.5660     3.4512 H            1    LIG   0.0000
  44 H           -4.2028    -1.1484     2.8596 H            1    LIG   0.0000
  45 H           -1.2310    -2.5011     4.1048 H            1    LIG   0.0000
  46 H           -2.1956    -1.4223     4.8615 H            1    LIG   0.0000
  47 H           -2.7440    -2.2308     3.5529 H            1    LIG   0.0000
  48 H           -0.2917    -3.2478     2.1863 H            1    LIG   0.0000
  49 H            1.4835    -4.8398     2.4292 H            1    LIG   0.0000
  50 H            4.8965    -3.9794     3.3458 H            1    LIG   0.0000
  51 H            3.8104    -5.1105     3.8013 H            1    LIG   0.0000
  52 H            4.1888    -4.9307     2.2230 H            1    LIG   0.0000
  53 H            4.1031    -1.7814     3.4024 H            1    LIG   0.0000
  54 H            2.3340    -0.1829     3.1617 H            1    LIG   0.0000
@<TRIPOS>BOND
   1        1        2 1
   2        2        3 1
   3        3        4 2
   4        3        5 1
   5        5        6 1
   6        6        7 2
   7        7        8 1
   8        8        9 1
   9        9       10 1
  10       10       11 1
  11       11       12 2
  12       12       13 1
  13       13       14 ar
  14       14       15 ar
  15       15       16 ar
  16       16       17 1
  17       16       18 ar
  18       18       19 ar
  19       19       13 ar
  20       12       20 1
  21       20       21 1
  22       20       22 2
  23       22       10 1
  24       22       23 1
  25       23       24 ar
  26       24       25 ar
  27       25       26 ar
  28       26       27 1
  29       26       28 ar
  30       28       29 ar
  31       29       23 ar
  32        8       30 1
  33       30        5 2
  34        1       31 1
  35        1       32 1
  36        1       33 1
  37        6       34 1
  38        7       35 1
  39        9       36 1
  40        9       37 1
  41       14       38 1
  42       15       39 1
  43       17       40 1
  44       17       41 1
  45       17       42 1
  46       18       43 1
  47       19       44 1
  48       21       45 1
  49       21       46 1
  50       21       47 1
  51       24       48 1
  52       25       49 1
  53       27       50 1
  54       27       51 1
  55       27       52 1
  56       28       53 1
  57       29       54 1

@<TRIPOS>MOLECULE

  54   57
SMALL
USER_CHARGES
@<TRIPOS>ATOM
   1 C1           6.0775     3.2950     5.5518 C.3          1    LIG   0.0000
   2 O2           4.9682     3.4662     4.6820 O.3          1    LIG   0.0000
   3 C3           4.5204     2.3725     4.1170 C.2          1    LIG   0.0000
   4 O4           5.0452     1.3187     4.3498 O.2          1    LIG   0.0000
   5 C5           3.3902     2.4351     3.2102 C.2          1    LIG   0.0000
   6 C6           2.6815     3.6029     2.8482 C.2          1    LIG   0.0000
   7 C7           1.7096     3.1980     1.9853 C.2          1    LIG   0.0000
   8 N8           1.8489     1.8489     1.8489 N.pl3        1    LIG   0.0000
   9 C9           1.0000     1.0000     1.0000 C.3          1    LIG   0.0000
  10 N10         -0.1499     0.5195     1.7812 N.pl3        1    LIG   0.0000
  11 N11         -1.4091     0.6715     1.4474 N.2          1    LIG   0.0000
  12 C12         -2.1825     0.1341     2.3533 C.2          1    LIG   0.0000
  13 C13         -3.6318     0.0995     2.3440 C.ar         1    LIG   0.0000
  14 C14         -4.3398     1.2187     1.9185 C.ar         1    LIG   0.0000
  15 C15         -5.7303     1.1809     1.9116 C.ar         1    LIG   0.0000
  16 C16         -6.3967     0.0335     2.3280 C.ar         1    LIG   0.0000
  17 C17         -7.9156     0.0009     2.3176 C.3          1    LIG   0.0000
  18 C18         -5.6805    -1.0821     2.7510 C.ar         1    LIG   0.0000
  19 C19         -4.2902    -1.0530     2.7612 C.ar         1    LIG   0.0000
  20 C20         -1.3485    -0.4132     3.3510 C.2          1    LIG   0.0000
  21 C21         -1.7894    -1.1467     4.6065 C.3          1    LIG   0.0000
  22 C22         -0.0758    -0.1526     2.9625 C.2          1    LIG   0.0000
  23 C23          1.1316    -0.5250     3.6733 C.ar         1    LIG   0.0000
  24 C24          1.2469    -0.2286     5.0275 C.ar         1    LIG   0.0000
  25 C25          2.4074    -0.5876     5.7052 C.ar         1    LIG   0.0000
  26 C26          3.4360    -1.2342     5.0284 C.ar         1    LIG   0.0000
  27 C27          4.7002    -1.6224     5.7762 C.3          1    LIG   0.0000
  28 C28          3.3119    -1.5278     3.6739 C.ar         1    LIG   0.0000
  29 C29          2.1552    -1.1725     2.9886 C.ar         1    LIG   0.0000
  30 N30          2.8477     1.4184     2.5825 N.2          1    LIG   0.0000
  31 H            6.3437     4.1811     5.9310 H            1    LIG   0.0000
  32 H            5.8252     2.6762     6.2958 H            1    LIG   0.0000
  33 H            6.8447     2.9069     5.0411 H            1    LIG   0.0000
  34 H            2.8579     4.5359     3.1617 H            1    LIG   0.0000
  35 H            1.0272     3.7768     1.5390 H            1    LIG   0.0000
  36 H            0.6733     1.5311     0.2182 H            1    LIG   0.0000
  37 H            1.5311     0.2182     0.6733 H            1    LIG   0.0000
  38 H           -3.8548     2.0411     1.6211 H            1    LIG   0.0000
  39 H           -6.2507     1.9788     1.6073 H            1    LIG   0.0000
  40 H           -8.2321    -0.8899     2.6438 H            1    LIG   0.0000
  41 H           -8.2685     0.7198     2.9164 H            1    LIG   0.0000
  42 H           -8.2459     0.1512     1.3857 H            1    LIG   0.0000
  43 H           -6.1656    -1.9047     3.0477 H            1    LIG   0.0000
  44 H           -3.7698    -1.8511     3.0648 H            1    LIG   0.0000
  45 H           -0.9842    -1.4234     5.1310 H            1    LIG   0.0000
  46 H           -2.3584    -0.5417     5.1635 H            1    LIG   0.0000
  47 H           -2.3158    -1.9577     4.3512 H            1    LIG   0.0000
  48 H            0.5040     0.2372     5.5083 H            1    LIG   0.0000
  49 H            2.5021    -0.3808     6.6790 H            1    LIG   0.0000
  50 H            5.3334    -2.0749     5.1482 H            1    LIG   0.0000
  51 H            5.1316    -0.8015     6.1504 H            1    LIG   0.0000
  52 H            4.4679    -2.2465     6.5223 H            1    LIG   0.0000
  53 H            4.0545    -1.9943     3.1933 H            1    LIG   0.0000
  54 H            2.0602    -1.3800     2.0150 H            1    LIG   0.0000
@<TRIPOS>BOND
   1        1        2 1
   2        2        3 1
   3        3        4 2
   4        3        5 1
   5        5        6 1
   6        6        7 2
   7        7        8 1
   8        8        9 1
   9        9       10 1
  10       10       11 1
  11       11       12 2
  12       12       13 1
  13       13       14 ar
  14       14       15 ar
  15       15       16 ar
  16       16       17 1
  17       16       18 ar
  18       18       19 ar
  19       19       13 ar
  20       12       20 1
  21       20       21 1
  22       20       22 2
  23       22       10 1
  24       22       23 1
  25       23       24 ar
  26       24       25 ar
  27       25       26 ar
  28       26       27 1
  29       26       28 ar
  30       28       29 ar
  31       29       23 ar
  32        8       30 1
  33       30        5 2
  34        1       31 1
  35        1       32 1
  36        1       33 1
  37        6       34 1
  38        7       35 1
  39        9       36 1
  40        9       37 1
  41       14       38 1
  42       15       39 1
  43       17       40 1
  44       17       41 1
  45       17       42 1
  46       18       43 1
  47       19       44 1
  48       21       45 1
  49       21       46 1
  50       21       47 1
  51       24       48 1
  52       25       49 1
  53       27       50 1
  54       27       51 1
  55       27       52 1
  56       28       53 1
  57       29       54 1

@<TRIPOS>MOLECULE

  54   57
SMALL
USER_CHARGES
@<TRIPOS>ATOM
   1 C1           6.0775     3.2950     5.5518 C.3          1    LIG   0.0000
   2 O2           4.9682     3.4662     4.6820 O.3          1    LIG   0.0000
   3 C3           4.5204     2.3725     4.1170 C.2          1    LIG   0.0000
   4 O4           5.0452     1.3187     4.3498 O.2          1    LIG   0.0000
   5 C5           3.3902     2.4351     3.2102 C.2          1    LIG   0.0000
   6 C6           2.6815     3.6029     2.8482 C.2          1    LIG   0.0000
   7 C7           1.7096     3.1980     1.9853 C.2          1    LIG   0.0000
   8 N8           1.8489     1.8489     1.8489 N.pl3        1    LIG   0.0000
   9 C9           1.0000     1.0000     1.0000 C.3          1    LIG   0.0000
  10 N10         -0.1499     0.5195     1.7812 N.pl3        1    LIG   0.0000
  11 N11         -0.1794    -0.5884     2.4824 N.2          1    LIG   0.0000
  12 C12         -1.3458    -0.7272     3.0551 C.2          1    LIG   0.0000
  13 C13         -1.7668    -1.8217     3.9075 C.ar         1    LIG   0.0000
  14 C14         -1.3939    -3.1223     3.5847 C.ar         1    LIG   0.0000
  15 C15         -1.8005    -4.1692     4.4055 C.ar         1    LIG   0.0000
  16 C16         -2.5716    -3.9094     5.5333 C.ar         1    LIG   0.0000
  17 C17         -3.0116    -5.0588     6.4241 C.3          1    LIG   0.0000
  18 C18         -2.9392    -2.6051     5.8494 C.ar         1    LIG   0.0000
  19 C19         -2.5372    -1.5525     5.0344 C.ar         1    LIG   0.0000
  20 C20         -2.1298     0.3889     2.6942 C.2          1    LIG   0.0000
  21 C21         -3.5598     0.6749     3.1209 C.3          1    LIG   0.0000
  22 C22         -1.3493     1.1535     1.8911 C.2          1    LIG   0.0000
  23 C23         -1.7256     2.4094     1.2724 C.ar         1    LIG   0.0000
  24 C24         -2.2939     3.4122     2.0511 C.ar         1    LIG   0.0000
  25 C25         -2.6536     4.6154     1.4529 C.ar         1    LIG   0.0000
  26 C26         -2.4447     4.8045     0.0910 C.ar         1    LIG   0.0000
  27 C27         -2.8408     6.1216    -0.5543 C.3          1    LIG   0.0000
  28 C28         -1.8746     3.7964    -0.6803 C.ar         1    LIG   0.0000
  29 C29         -1.5121     2.5904    -0.0905 C.ar         1    LIG   0.0000
  30 N30          2.8477     1.4184     2.5825 N.2          1    LIG   0.0000
  31 H            6.3437     4.1811     5.9310 H            1    LIG   0.0000
  32 H            5.8252     2.6762     6.2958 H            1    LIG   0.0000
  33 H            6.8447     2.9069     5.0411 H            1    LIG   0.0000
  34 H            2.8579     4.5359     3.1617 H            1    LIG   0.0000
  35 H            1.0272     3.7768     1.5390 H            1    LIG   0.0000
  36 H            0.6733     1.5311     0.2182 H            1    LIG   0.0000
  37 H            1.5311     0.2182     0.6733 H            1    LIG   0.0000
  38 H           -0.8400    -3.3027     2.7719 H            1    LIG   0.0000
  39 H           -1.5383    -5.1086     4.1846 H            1    LIG   0.0000
  40 H           -3.5542    -4.7022     7.1846 H            1    LIG   0.0000
  41 H           -3.5644    -5.7001     5.8920 H            1    LIG   0.0000
  42 H           -2.2057    -5.5305     6.7819 H            1    LIG   0.0000
  43 H           -3.4925    -2.4247     6.6626 H            1    LIG   0.0000
  44 H           -2.7987    -0.6130     5.2557 H            1    LIG   0.0000
  45 H           -3.8628     1.5368     2.7145 H            1    LIG   0.0000
  46 H           -4.1547    -0.0670     2.8114 H            1    LIG   0.0000
  47 H           -3.6029     0.7429     4.1177 H            1    LIG   0.0000
  48 H           -2.4421     3.2697     3.0297 H            1    LIG   0.0000
  49 H           -3.0623     5.3443     2.0021 H            1    LIG   0.0000
  50 H           -2.6249     6.0929    -1.5303 H            1    LIG   0.0000
  51 H           -3.8225     6.2697    -0.4343 H            1    LIG   0.0000
  52 H           -2.3358     6.8693    -0.1231 H            1    LIG   0.0000
  53 H           -1.7256     3.9392    -1.6588 H            1    LIG   0.0000
  54 H           -1.1027     1.8617    -0.6395 H            1    LIG   0.0000
@<TRIPOS>BOND
   1        1        2 1
   2        2        3 1
   3        3        4 2
   4        3        5 1
   5        5        6 1
   6        6        7 2
   7        7        8 1
   8        8        9 1
   9        9       10 1
  10       10       11 1
  11       11       12 2
  12       12       13 1
  13       13       14 ar
  14       14       15 ar
  15       15       16 ar
  16       16       17 1
  17       16       18 ar
  18       18       19 ar
  19       19       13 ar
  20       12       20 1
  21       20       21 1
  22       20       22 2
  23       22       10 1
  24       22       23 1
  25       23       24 ar
  26       24       25 ar
  27       25       26 ar
  28       26       27 1
  29       26       28 ar
  30       28       29 ar
  31       29       23 ar
  32        8       30 1
  33       30        5 2
  34        1       31 1
  35        1       32 1
  36        1       33 1
  37        6       34 1
  38        7       35 1
  39        9       36 1
  40        9       37 1
  41       14       38 1
  42       15       39 1
  43       17       40 1
  44       17       41 1
  45       17       42 1
  46       18       43 1
  47       19       44 1
  48       21       45 1
  49       21       46 1
  50       21       47 1
  51       24       48 1
  52       25       49 1
  53       27       50 1
  54       27       51 1
  55       27       52 1
  56       28       53 1
  57       29       54 1

@<TRIPOS>MOLECULE

  54   57
SMALL
USER_CHARGES
@<TRIPOS>ATOM
   1 C1           6.1903     1.2712     5.2715 C.3          1    LIG   0.0000
   2 O2           5.0933     1.2221     4.3711 O.3          1    LIG   0.0000
   3 C3           4.5204     2.3725     4.1170 C.2          1    LIG   0.0000
   4 O4           4.9306     3.3744     4.6345 O.2          1    LIG   0.0000
   5 C5           3.3902     2.4351     3.2102 C.2          1    LIG   0.0000
   6 C6           2.6815     3.6029     2.8482 C.2          1    LIG   0.0000
   7 C7           1.7096     3.1980     1.9853 C.2          1    LIG   0.0000
   8 N8           1.8489     1.8489     1.8489 N.pl3        1    LIG   0.0000
   9 C9           1.0000     1.0000     1.0000 C.3          1    LIG   0.0000
  10 N10         -0.1499     0.5195     1.7812 N.pl3        1    LIG   0.0000
  11 N11         -0.9968     1.2824     2.4299 N.2          1    LIG   0.0000
  12 C12         -1.9003     0.5479     3.0232 C.2          1    LIG   0.0000
  13 C13         -3.0022     1.0213     3.8377 C.ar         1    LIG   0.0000
  14 C14         -2.7968     2.0782     4.7185 C.ar         1    LIG   0.0000
  15 C15         -3.8570     2.5288     5.4981 C.ar         1    LIG   0.0000
  16 C16         -5.1044     1.9230     5.3924 C.ar         1    LIG   0.0000
  17 C17         -6.2568     2.4212     6.2479 C.3          1    LIG   0.0000
  18 C18         -5.3014     0.8669     4.5079 C.ar         1    LIG   0.0000
  19 C19         -4.2470     0.4101     3.7247 C.ar         1    LIG   0.0000
  20 C20         -1.6111    -0.8007     2.7262 C.2          1    LIG   0.0000
  21 C21         -2.3861    -2.0227     3.1893 C.3          1    LIG   0.0000
  22 C22         -0.5032    -0.7848     1.9444 C.2          1    LIG   0.0000
  23 C23          0.1709    -1.9414     1.3879 C.ar         1    LIG   0.0000
  24 C24          0.6640    -1.8858     0.0884 C.ar         1    LIG   0.0000
  25 C25          1.3097    -2.9981    -0.4414 C.ar         1    LIG   0.0000
  26 C26          1.4553    -4.1487     0.3262 C.ar         1    LIG   0.0000
  27 C27          2.1616    -5.3591    -0.2604 C.3          1    LIG   0.0000
  28 C28          0.9599    -4.1952     1.6257 C.ar         1    LIG   0.0000
  29 C29          0.3130    -3.0878     2.1633 C.ar         1    LIG   0.0000
  30 N30          2.8477     1.4184     2.5825 N.2          1    LIG   0.0000
  31 H            6.5573     0.3500     5.4003 H            1    LIG   0.0000
  32 H            6.9028     1.8645     4.8967 H            1    LIG   0.0000
  33 H            5.8833     1.6338     6.1514 H            1    LIG   0.0000
  34 H            2.8579     4.5359     3.1617 H            1    LIG   0.0000
  35 H            1.0272     3.7768     1.5390 H            1    LIG   0.0000
  36 H            0.6733     1.5311     0.2182 H            1    LIG   0.0000
  37 H            1.5311     0.2182     0.6733 H            1    LIG   0.0000
  38 H           -1.8973     2.5091     4.7903 H            1    LIG   0.0000
  39 H           -3.7223     3.2883     6.1345 H            1    LIG   0.0000
  40 H           -7.0756     1.8819     6.0510 H            1    LIG   0.0000
  41 H           -6.0196     2.3261     7.2148 H            1    LIG   0.0000
  42 H           -6.4338     3.3834     6.0412 H            1    LIG   0.0000
  43 H           -6.2011     0.4366     4.4355 H            1    LIG   0.0000
  44 H           -4.3818    -0.3489     3.0878 H            1    LIG   0.0000
  45 H           -1.9538    -2.8485     2.8272 H            1    LIG   0.0000
  46 H           -2.3871    -2.0578     4.1887 H            1    LIG   0.0000
  47 H           -3.3275    -1.9661     2.8568 H            1    LIG   0.0000
  48 H            0.5554    -1.0558    -0.4587 H            1    LIG   0.0000
  49 H            1.6693    -2.9705    -1.3741 H            1    LIG   0.0000
  50 H            2.1807    -6.0946     0.4169 H            1    LIG   0.0000
  51 H            1.6714    -5.6688    -1.0751 H            1    LIG   0.0000
  52 H            3.0978    -5.1107    -0.5091 H            1    LIG   0.0000
  53 H            1.0692    -5.0250     2.1730 H            1    LIG   0.0000
  54 H           -0.0459    -3.1152     3.0962 H            1    LIG   0.0000
@<TRIPOS>BOND
   1        1        2 1
   2        2        3 1
   3        3        4 2
   4        3        5 1
   5        5        6 1
   6        6        7 2
   7        7        8 1
   8        8        9 1
   9        9       10 1
  10       10       11 1
  11       11       12 2
  12       12       13 1
  13       13       14 ar
  14       14       15 ar
  15       15       16 ar
  16       16       17 1
  17       16       18 ar
  18       18       19 ar
  19       19       13 ar
  20       12       20 1
  21       20       21 1
  22       20       22 2
  23       22       10 1
  24       22       23 1
  25       23       24 ar
  26       24       25 ar
  27       25       26 ar
  28       26       27 1
  29       26       28 ar
  30       28       29 ar
  31       29       23 ar
  32        8       30 1
  33       30        5 2
  34        1       31 1
  35        1       32 1
  36        1       33 1
  37        6       34 1
  38        7       35 1
  39        9       36 1
  40        9       37 1
  41       14       38 1
  42       15       39 1
  43       17       40 1
  44       17       41 1
  45       17       42 1
  46       18       43 1
  47       19       44 1
  48       21       45 1
  49       21       46 1
  50       21       47 1
  51       24       48 1
  52       25       49 1
  53       27       50 1
  54       27       51 1
  55       27       52 1
  56       28       53 1
  57       29       54 1

@<TRIPOS>MOLECULE

  54   57
SMALL
USER_CHARGES
@<TRIPOS>ATOM
   1 C1           6.1903     1.2712     5.2715 C.3          1    LIG   0.0000
   2 O2           5.0933     1.2221     4.3711 O.3          1    LIG   0.0000
   3 C3           4.5204     2.3725     4.1170 C.2          1    LIG   0.0000
   4 O4           4.9306     3.3744     4.6345 O.2          1    LIG   0.0000
   5 C5           3.3902     2.4351     3.2102 C.2          1    LIG   0.0000
   6 C6           2.6815     3.6029     2.8482 C.2          1    LIG   0.0000
   7 C7           1.7096     3.1980     1.9853 C.2          1    LIG   0.0000
   8 N8           1.8489     1.8489     1.8489 N.pl3        1    LIG   0.0000
   9 C9           1.0000     1.0000     1.0000 C.3          1    LIG   0.0000
  10 N10         -0.1499     0.5195     1.7812 N.pl3        1    LIG   0.0000
  11 N11         -0.0751    -0.1274     2.9196 N.2          1    LIG   0.0000
  12 C12         -1.2739    -0.4141     3.3535 C.2          1    LIG   0.0000
  13 C13         -1.6061    -1.1240     4.5732 C.ar         1    LIG   0.0000
  14 C14         -0.8386    -2.2183     4.9582 C.ar         1    LIG   0.0000
  15 C15         -1.1614    -2.8964     6.1290 C.ar         1    LIG   0.0000
  16 C16         -2.2415    -2.4787     6.8991 C.ar         1    LIG   0.0000
  17 C17         -2.5873    -3.2253     8.1764 C.3          1    LIG   0.0000
  18 C18         -3.0033    -1.3823     6.5072 C.ar         1    LIG   0.0000
  19 C19         -2.6877    -0.6986     5.3381 C.ar         1    LIG   0.0000
  20 C20         -2.1965     0.0961     2.4161 C.2          1    LIG   0.0000
  21 C21         -3.7118     0.0122     2.4896 C.3          1    LIG   0.0000
  22 C22         -1.4577     0.6761     1.4380 C.2          1    LIG   0.0000
  23 C23         -1.9697     1.3391     0.2548 C.ar         1    LIG   0.0000
  24 C24         -1.3620     2.5082    -0.1910 C.ar         1    LIG   0.0000
  25 C25         -1.8569     3.1409    -1.3266 C.ar         1    LIG   0.0000
  26 C26         -2.9480     2.6043    -2.0017 C.ar         1    LIG   0.0000
  27 C27         -3.4824     3.3020    -3.2410 C.3          1    LIG   0.0000
  28 C28         -3.5493     1.4337    -1.5495 C.ar         1    LIG   0.0000
  29 C29         -3.0609     0.7946    -0.4150 C.ar         1    LIG   0.0000
  30 N30          2.8477     1.4184     2.5825 N.2          1    LIG   0.0000
  31 H            6.5573     0.3500     5.4003 H            1    LIG   0.0000
  32 H            6.9028     1.8645     4.8967 H            1    LIG   0.0000
  33 H            5.8833     1.6338     6.1514 H            1    LIG   0.0000
  34 H            2.8579     4.5359     3.1617 H            1    LIG   0.0000
  35 H            1.0272     3.7768     1.5390 H            1    LIG   0.0000
  36 H            0.6733     1.5311     0.2182 H            1    LIG   0.0000
  37 H            1.5311     0.2182     0.6733 H            1    LIG   0.0000
  38 H           -0.0637    -2.5141     4.3997 H            1    LIG   0.0000
  39 H           -0.6169    -3.6842     6.4170 H            1    LIG   0.0000
  40 H           -3.3835    -2.7996     8.6062 H            1    LIG   0.0000
  41 H           -2.7958    -4.1789     7.9590 H            1    LIG   0.0000
  42 H           -1.8101    -3.1889     8.8046 H            1    LIG   0.0000
  43 H           -3.7777    -1.0860     7.0661 H            1    LIG   0.0000
  44 H           -3.2317     0.0897     5.0505 H            1    LIG   0.0000
  45 H           -4.1097     0.4591     1.6883 H            1    LIG   0.0000
  46 H           -3.9919    -0.9476     2.5094 H            1    LIG   0.0000
  47 H           -4.0311     0.4698     3.3194 H            1    LIG   0.0000
  48 H           -0.5782     2.8895     0.2993 H            1    LIG   0.0000
  49 H           -1.4283     3.9816    -1.6575 H            1    LIG   0.0000
  50 H           -4.2619     2.7900    -3.6017 H            1    LIG   0.0000
  51 H           -3.7736     4.2284    -3.0024 H            1    LIG   0.0000
  52 H           -2.7633     3.3468    -3.9344 H            1    LIG   0.0000
  53 H           -4.3325     1.0521    -2.0402 H            1    LIG   0.0000
  54 H           -3.4891    -0.0465    -0.0845 H            1    LIG   0.0000
@<TRIPOS>BOND
   1        1        2 1
   2        2        3 1
   3        3        4 2
   4        3        5 1
   5        5        6 1
   6        6        7 2
   7        7        8 1
   8        8        9 1
   9        9       10 1
  10       10       11 1
  11       11       12 2
  12       12       13 1
  13       13       14 ar
  14       14       15 ar
  15       15       16 ar
  16       16       17 1
  17       16       18 ar
  18       18       19 ar
  19       19       13 ar
  20       12       20 1
  21       20       21 1
  22       20       22 2
  23       22       10 1
  24       22       23 1
  25       23       24 ar
  26       24       25 ar
  27       25       26 ar
  28       26       27 1
  29       26       28 ar
  30       28       29 ar
  31       29       23 ar
  32        8       30 1
  33       30        5 2
  34        1       31 1
  35        1       32 1
  36        1       33 1
  37        6       34 1
  38        7       35 1
  39        9       36 1
  40        9       37 1
  41       14       38 1
  42       15       39 1
  43       17       40 1
  44       17       41 1
  45       17       42 1
  46       18       43 1
  47       19       44 1
  48       21       45 1
  49       21       46 1
  50       21       47 1
  51       24       48 1
  52       25       49 1
  53       27       50 1
  54       27       51 1
  55       27       52 1
  56       28       53 1
  57       29       54 1

