@<TRIPOS>MOLECULE
*****
 54 57 0 0 0
SMALL
USER_CHARGES

@<TRIPOS>ATOM
      1 C1          6.1903    1.2712    5.2715 C.3     1  LIG1        0.0000
      2 O2          5.0933    1.2221    4.3711 O.3     1  LIG1        0.0000
      3 C3          4.5204    2.3725    4.1170 C.2     1  LIG1        0.0000
      4 O4          4.9306    3.3744    4.6345 O.2     1  LIG1        0.0000
      5 C5          3.3902    2.4351    3.2102 C.2     1  LIG1        0.0000
      6 C6          2.6815    3.6029    2.8482 C.2     1  LIG1        0.0000
      7 C7          1.7096    3.1980    1.9853 C.2     1  LIG1        0.0000
      8 N8          1.8489    1.8489    1.8489 N.pl3   1  LIG1        0.0000
      9 C9          1.0000    1.0000    1.0000 C.3     1  LIG1        0.0000
     10 N10        -0.1499    0.5195    1.7812 N.pl3   1  LIG1        0.0000
     11 N11        -0.9968    1.2824    2.4299 N.2     1  LIG1        0.0000
     12 C12        -1.9003    0.5479    3.0232 C.2     1  LIG1        0.0000
     13 C13        -3.0022    1.0213    3.8377 C.3     1  LIG1        0.0000
     14 C14        -2.7968    2.0782    4.7185 C.3     1  LIG1        0.0000
     15 C15        -3.8570    2.5288    5.4981 C.3     1  LIG1        0.0000
     16 C16        -5.1044    1.9230    5.3924 C.3     1  LIG1        0.0000
     17 C17        -6.2568    2.4212    6.2479 C.3     1  LIG1        0.0000
     18 C18        -5.3014    0.8669    4.5079 C.3     1  LIG1        0.0000
     19 C19        -4.2470    0.4101    3.7247 C.3     1  LIG1        0.0000
     20 C20        -1.6111   -0.8007    2.7262 C.2     1  LIG1        0.0000
     21 C21        -2.3861   -2.0227    3.1893 C.3     1  LIG1        0.0000
     22 C22        -0.5032   -0.7848    1.9444 C.2     1  LIG1        0.0000
     23 C23         0.1709   -1.9414    1.3879 C.3     1  LIG1        0.0000
     24 C24         0.6640   -1.8858    0.0884 C.3     1  LIG1        0.0000
     25 C25         1.3097   -2.9981   -0.4414 C.3     1  LIG1        0.0000
     26 C26         1.4553   -4.1487    0.3262 C.3     1  LIG1        0.0000
     27 C27         2.1616   -5.3591   -0.2604 C.3     1  LIG1        0.0000
     28 C28         0.9599   -4.1952    1.6257 C.3     1  LIG1        0.0000
     29 C29         0.3130   -3.0878    2.1633 C.3     1  LIG1        0.0000
     30 N30         2.8477    1.4184    2.5825 N.2     1  LIG1        0.0000
     31 H           6.5573    0.3500    5.4003 H       1  LIG1        0.0000
     32 H           6.9028    1.8645    4.8967 H       1  LIG1        0.0000
     33 H           5.8833    1.6338    6.1514 H       1  LIG1        0.0000
     34 H           2.8579    4.5359    3.1617 H       1  LIG1        0.0000
     35 H           1.0272    3.7768    1.5390 H       1  LIG1        0.0000
     36 H           0.6733    1.5311    0.2182 H       1  LIG1        0.0000
     37 H           1.5311    0.2182    0.6733 H       1  LIG1        0.0000
     38 H          -1.8973    2.5091    4.7903 H       1  LIG1        0.0000
     39 H          -3.7223    3.2883    6.1345 H       1  LIG1        0.0000
     40 H          -7.0756    1.8819    6.0510 H       1  LIG1        0.0000
     41 H          -6.0196    2.3261    7.2148 H       1  LIG1        0.0000
     42 H          -6.4338    3.3834    6.0412 H       1  LIG1        0.0000
     43 H          -6.2011    0.4366    4.4355 H       1  LIG1        0.0000
     44 H          -4.3818   -0.3489    3.0878 H       1  LIG1        0.0000
     45 H          -1.9538   -2.8485    2.8272 H       1  LIG1        0.0000
     46 H          -2.3871   -2.0578    4.1887 H       1  LIG1        0.0000
     47 H          -3.3275   -1.9661    2.8568 H       1  LIG1        0.0000
     48 H           0.5554   -1.0558   -0.4587 H       1  LIG1        0.0000
     49 H           1.6693   -2.9705   -1.3741 H       1  LIG1        0.0000
     50 H           2.1807   -6.0946    0.4169 H       1  LIG1        0.0000
     51 H           1.6714   -5.6688   -1.0751 H       1  LIG1        0.0000
     52 H           3.0978   -5.1107   -0.5091 H       1  LIG1        0.0000
     53 H           1.0692   -5.0250    2.1730 H       1  LIG1        0.0000
     54 H          -0.0459   -3.1152    3.0962 H       1  LIG1        0.0000
@<TRIPOS>BOND
     1     1     2    1
     2     2     3    1
     3     3     4    2
     4     3     5    1
     5     5     6    1
     6     6     7    2
     7     7     8    1
     8     8     9    1
     9     9    10    1
    10    10    11    1
    11    11    12    2
    12    12    13    1
    13    13    14   ar
    14    14    15   ar
    15    15    16   ar
    16    16    17    1
    17    16    18   ar
    18    18    19   ar
    19    19    13   ar
    20    12    20    1
    21    20    21    1
    22    20    22    2
    23    22    10    1
    24    22    23    1
    25    23    24   ar
    26    24    25   ar
    27    25    26   ar
    28    26    27    1
    29    26    28   ar
    30    28    29   ar
    31    29    23   ar
    32     8    30    1
    33    30     5    2
    34     1    31    1
    35     1    32    1
    36     1    33    1
    37     6    34    1
    38     7    35    1
    39     9    36    1
    40     9    37    1
    41    14    38    1
    42    15    39    1
    43    17    40    1
    44    17    41    1
    45    17    42    1
    46    18    43    1
    47    19    44    1
    48    21    45    1
    49    21    46    1
    50    21    47    1
    51    24    48    1
    52    25    49    1
    53    27    50    1
    54    27    51    1
    55    27    52    1
    56    28    53    1
    57    29    54    1
