@<TRIPOS>MOLECULE
*****
 54 57 0 0 0
SMALL
USER_CHARGES

@<TRIPOS>ATOM
      1 C1          3.8720    6.6545    4.3977 C.3     1  LIG1        0.0000
      2 O2          3.7761    5.2780    4.0623 O.3     1  LIG1        0.0000
      3 C3          2.8195    4.9674    3.2229 C.2     1  LIG1        0.0000
      4 O4          2.0973    5.8238    2.7927 O.2     1  LIG1        0.0000
      5 C5          2.6335    3.5886    2.8134 C.2     1  LIG1        0.0000
      6 C6          3.4069    2.4855    3.2402 C.2     1  LIG1        0.0000
      7 C7          2.8857    1.3973    2.6100 C.2     1  LIG1        0.0000
      8 N8          1.8489    1.8489    1.8489 N.pl3   1  LIG1        0.0000
      9 C9          1.0000    1.0000    1.0000 C.3     1  LIG1        0.0000
     10 N10        -0.1499    0.5195    1.7812 N.pl3   1  LIG1        0.0000
     11 N11        -1.3047    1.1325    1.8846 N.2     1  LIG1        0.0000
     12 C12        -2.1105    0.4472    2.6518 C.2     1  LIG1        0.0000
     13 C13        -3.4711    0.7972    3.0097 C.3     1  LIG1        0.0000
     14 C14        -3.7845    2.1228    3.2920 C.3     1  LIG1        0.0000
     15 C15        -5.0912    2.4537    3.6352 C.3     1  LIG1        0.0000
     16 C16        -6.0665    1.4641    3.6939 C.3     1  LIG1        0.0000
     17 C17        -7.4913    1.8343    4.0699 C.3     1  LIG1        0.0000
     18 C18        -5.7446    0.1407    3.4088 C.3     1  LIG1        0.0000
     19 C19        -4.4407   -0.1991    3.0649 C.3     1  LIG1        0.0000
     20 C20        -1.4152   -0.7059    3.0728 C.2     1  LIG1        0.0000
     21 C21        -1.9414   -1.8093    3.9751 C.3     1  LIG1        0.0000
     22 C22        -0.1841   -0.6300    2.5094 C.2     1  LIG1        0.0000
     23 C23         0.8875   -1.5953    2.6557 C.3     1  LIG1        0.0000
     24 C24         1.2508   -2.0263    3.9274 C.3     1  LIG1        0.0000
     25 C25         2.2798   -2.9524    4.0628 C.3     1  LIG1        0.0000
     26 C26         2.9332   -3.4356    2.9343 C.3     1  LIG1        0.0000
     27 C27         4.0563   -4.4467    3.0913 C.3     1  LIG1        0.0000
     28 C28         2.5627   -2.9999    1.6657 C.3     1  LIG1        0.0000
     29 C29         1.5351   -2.0742    1.5212 C.3     1  LIG1        0.0000
     30 N30         1.7181    3.1473    1.9832 N.2     1  LIG1        0.0000
     31 H           4.6269    6.7894    5.0396 H       1  LIG1        0.0000
     32 H           4.0396    7.1886    3.5690 H       1  LIG1        0.0000
     33 H           3.0171    6.9549    4.8207 H       1  LIG1        0.0000
     34 H           4.1791    2.5011    3.8753 H       1  LIG1        0.0000
     35 H           3.2015    0.4519    2.6897 H       1  LIG1        0.0000
     36 H           0.6733    1.5311    0.2182 H       1  LIG1        0.0000
     37 H           1.5311    0.2182    0.6733 H       1  LIG1        0.0000
     38 H          -3.0785    2.8296    3.2488 H       1  LIG1        0.0000
     39 H          -5.3293    3.4032    3.8397 H       1  LIG1        0.0000
     40 H          -8.0614    1.0128    4.0653 H       1  LIG1        0.0000
     41 H          -7.5000    2.2410    4.9834 H       1  LIG1        0.0000
     42 H          -7.8502    2.4928    3.4084 H       1  LIG1        0.0000
     43 H          -6.4509   -0.5660    3.4512 H       1  LIG1        0.0000
     44 H          -4.2028   -1.1484    2.8596 H       1  LIG1        0.0000
     45 H          -1.2310   -2.5011    4.1048 H       1  LIG1        0.0000
     46 H          -2.1956   -1.4223    4.8615 H       1  LIG1        0.0000
     47 H          -2.7440   -2.2308    3.5529 H       1  LIG1        0.0000
     48 H           0.7775   -1.6745    4.7350 H       1  LIG1        0.0000
     49 H           2.5497   -3.2707    4.9716 H       1  LIG1        0.0000
     50 H           4.4157   -4.6883    2.1899 H       1  LIG1        0.0000
     51 H           4.7873   -4.0494    3.6460 H       1  LIG1        0.0000
     52 H           3.7052   -5.2678    3.5412 H       1  LIG1        0.0000
     53 H           3.0355   -3.3524    0.8581 H       1  LIG1        0.0000
     54 H           1.2646   -1.7565    0.6124 H       1  LIG1        0.0000
@<TRIPOS>BOND
     1     1     2    1
     2     2     3    1
     3     3     4    2
     4     3     5    1
     5     5     6    1
     6     6     7    2
     7     7     8    1
     8     8     9    1
     9     9    10    1
    10    10    11    1
    11    11    12    2
    12    12    13    1
    13    13    14   ar
    14    14    15   ar
    15    15    16   ar
    16    16    17    1
    17    16    18   ar
    18    18    19   ar
    19    19    13   ar
    20    12    20    1
    21    20    21    1
    22    20    22    2
    23    22    10    1
    24    22    23    1
    25    23    24   ar
    26    24    25   ar
    27    25    26   ar
    28    26    27    1
    29    26    28   ar
    30    28    29   ar
    31    29    23   ar
    32     8    30    1
    33    30     5    2
    34     1    31    1
    35     1    32    1
    36     1    33    1
    37     6    34    1
    38     7    35    1
    39     9    36    1
    40     9    37    1
    41    14    38    1
    42    15    39    1
    43    17    40    1
    44    17    41    1
    45    17    42    1
    46    18    43    1
    47    19    44    1
    48    21    45    1
    49    21    46    1
    50    21    47    1
    51    24    48    1
    52    25    49    1
    53    27    50    1
    54    27    51    1
    55    27    52    1
    56    28    53    1
    57    29    54    1
