@<TRIPOS>MOLECULE
*****
 54 57 0 0 0
SMALL
USER_CHARGES

@<TRIPOS>ATOM
      1 C1          6.0775    3.2950    5.5518 C.3     1  LIG1        0.0000
      2 O2          4.9682    3.4662    4.6820 O.3     1  LIG1        0.0000
      3 C3          4.5204    2.3725    4.1170 C.2     1  LIG1        0.0000
      4 O4          5.0452    1.3187    4.3498 O.2     1  LIG1        0.0000
      5 C5          3.3902    2.4351    3.2102 C.2     1  LIG1        0.0000
      6 C6          2.6815    3.6029    2.8482 C.2     1  LIG1        0.0000
      7 C7          1.7096    3.1980    1.9853 C.2     1  LIG1        0.0000
      8 N8          1.8489    1.8489    1.8489 N.pl3   1  LIG1        0.0000
      9 C9          1.0000    1.0000    1.0000 C.3     1  LIG1        0.0000
     10 N10        -0.1499    0.5195    1.7812 N.pl3   1  LIG1        0.0000
     11 N11        -1.3047    1.1325    1.8846 N.2     1  LIG1        0.0000
     12 C12        -2.1105    0.4472    2.6518 C.2     1  LIG1        0.0000
     13 C13        -3.4711    0.7972    3.0097 C.3     1  LIG1        0.0000
     14 C14        -3.7845    2.1228    3.2920 C.3     1  LIG1        0.0000
     15 C15        -5.0912    2.4537    3.6352 C.3     1  LIG1        0.0000
     16 C16        -6.0665    1.4641    3.6939 C.3     1  LIG1        0.0000
     17 C17        -7.4913    1.8343    4.0699 C.3     1  LIG1        0.0000
     18 C18        -5.7446    0.1407    3.4088 C.3     1  LIG1        0.0000
     19 C19        -4.4407   -0.1991    3.0649 C.3     1  LIG1        0.0000
     20 C20        -1.4152   -0.7059    3.0728 C.2     1  LIG1        0.0000
     21 C21        -1.9414   -1.8093    3.9751 C.3     1  LIG1        0.0000
     22 C22        -0.1841   -0.6300    2.5094 C.2     1  LIG1        0.0000
     23 C23         0.8875   -1.5953    2.6557 C.3     1  LIG1        0.0000
     24 C24         0.6267   -2.9446    2.4402 C.3     1  LIG1        0.0000
     25 C25         1.6581   -3.8671    2.5821 C.3     1  LIG1        0.0000
     26 C26         2.9320   -3.4366    2.9366 C.3     1  LIG1        0.0000
     27 C27         4.0527   -4.4510    3.0898 C.3     1  LIG1        0.0000
     28 C28         3.1845   -2.0848    3.1492 C.3     1  LIG1        0.0000
     29 C29         2.1593   -1.1556    3.0096 C.3     1  LIG1        0.0000
     30 N30         2.8477    1.4184    2.5825 N.2     1  LIG1        0.0000
     31 H           6.3437    4.1811    5.9310 H       1  LIG1        0.0000
     32 H           5.8252    2.6762    6.2958 H       1  LIG1        0.0000
     33 H           6.8447    2.9069    5.0411 H       1  LIG1        0.0000
     34 H           2.8579    4.5359    3.1617 H       1  LIG1        0.0000
     35 H           1.0272    3.7768    1.5390 H       1  LIG1        0.0000
     36 H           0.6733    1.5311    0.2182 H       1  LIG1        0.0000
     37 H           1.5311    0.2182    0.6733 H       1  LIG1        0.0000
     38 H          -3.0785    2.8296    3.2488 H       1  LIG1        0.0000
     39 H          -5.3293    3.4032    3.8397 H       1  LIG1        0.0000
     40 H          -8.0614    1.0128    4.0653 H       1  LIG1        0.0000
     41 H          -7.5000    2.2410    4.9834 H       1  LIG1        0.0000
     42 H          -7.8502    2.4928    3.4084 H       1  LIG1        0.0000
     43 H          -6.4509   -0.5660    3.4512 H       1  LIG1        0.0000
     44 H          -4.2028   -1.1484    2.8596 H       1  LIG1        0.0000
     45 H          -1.2310   -2.5011    4.1048 H       1  LIG1        0.0000
     46 H          -2.1956   -1.4223    4.8615 H       1  LIG1        0.0000
     47 H          -2.7440   -2.2308    3.5529 H       1  LIG1        0.0000
     48 H          -0.2917   -3.2478    2.1863 H       1  LIG1        0.0000
     49 H           1.4835   -4.8398    2.4292 H       1  LIG1        0.0000
     50 H           4.8965   -3.9794    3.3458 H       1  LIG1        0.0000
     51 H           3.8104   -5.1105    3.8013 H       1  LIG1        0.0000
     52 H           4.1888   -4.9307    2.2230 H       1  LIG1        0.0000
     53 H           4.1031   -1.7814    3.4024 H       1  LIG1        0.0000
     54 H           2.3340   -0.1829    3.1617 H       1  LIG1        0.0000
@<TRIPOS>BOND
     1     1     2    1
     2     2     3    1
     3     3     4    2
     4     3     5    1
     5     5     6    1
     6     6     7    2
     7     7     8    1
     8     8     9    1
     9     9    10    1
    10    10    11    1
    11    11    12    2
    12    12    13    1
    13    13    14   ar
    14    14    15   ar
    15    15    16   ar
    16    16    17    1
    17    16    18   ar
    18    18    19   ar
    19    19    13   ar
    20    12    20    1
    21    20    21    1
    22    20    22    2
    23    22    10    1
    24    22    23    1
    25    23    24   ar
    26    24    25   ar
    27    25    26   ar
    28    26    27    1
    29    26    28   ar
    30    28    29   ar
    31    29    23   ar
    32     8    30    1
    33    30     5    2
    34     1    31    1
    35     1    32    1
    36     1    33    1
    37     6    34    1
    38     7    35    1
    39     9    36    1
    40     9    37    1
    41    14    38    1
    42    15    39    1
    43    17    40    1
    44    17    41    1
    45    17    42    1
    46    18    43    1
    47    19    44    1
    48    21    45    1
    49    21    46    1
    50    21    47    1
    51    24    48    1
    52    25    49    1
    53    27    50    1
    54    27    51    1
    55    27    52    1
    56    28    53    1
    57    29    54    1
