@<TRIPOS>MOLECULE
*****
 54 57 0 0 0
SMALL
USER_CHARGES

@<TRIPOS>ATOM
      1 C1          6.0775    3.2950    5.5518 C.3     1  LIG1        0.0000
      2 O2          4.9682    3.4662    4.6820 O.3     1  LIG1        0.0000
      3 C3          4.5204    2.3725    4.1170 C.2     1  LIG1        0.0000
      4 O4          5.0452    1.3187    4.3498 O.2     1  LIG1        0.0000
      5 C5          3.3902    2.4351    3.2102 C.2     1  LIG1        0.0000
      6 C6          2.6815    3.6029    2.8482 C.2     1  LIG1        0.0000
      7 C7          1.7096    3.1980    1.9853 C.2     1  LIG1        0.0000
      8 N8          1.8489    1.8489    1.8489 N.pl3   1  LIG1        0.0000
      9 C9          1.0000    1.0000    1.0000 C.3     1  LIG1        0.0000
     10 N10        -0.1499    0.5195    1.7812 N.pl3   1  LIG1        0.0000
     11 N11        -1.4091    0.6715    1.4474 N.2     1  LIG1        0.0000
     12 C12        -2.1825    0.1341    2.3533 C.2     1  LIG1        0.0000
     13 C13        -3.6318    0.0995    2.3440 C.3     1  LIG1        0.0000
     14 C14        -4.3398    1.2187    1.9185 C.3     1  LIG1        0.0000
     15 C15        -5.7303    1.1809    1.9116 C.3     1  LIG1        0.0000
     16 C16        -6.3967    0.0335    2.3280 C.3     1  LIG1        0.0000
     17 C17        -7.9156    0.0009    2.3176 C.3     1  LIG1        0.0000
     18 C18        -5.6805   -1.0821    2.7510 C.3     1  LIG1        0.0000
     19 C19        -4.2902   -1.0530    2.7612 C.3     1  LIG1        0.0000
     20 C20        -1.3485   -0.4132    3.3510 C.2     1  LIG1        0.0000
     21 C21        -1.7894   -1.1467    4.6065 C.3     1  LIG1        0.0000
     22 C22        -0.0758   -0.1526    2.9625 C.2     1  LIG1        0.0000
     23 C23         1.1316   -0.5250    3.6733 C.3     1  LIG1        0.0000
     24 C24         1.2469   -0.2286    5.0275 C.3     1  LIG1        0.0000
     25 C25         2.4074   -0.5876    5.7052 C.3     1  LIG1        0.0000
     26 C26         3.4360   -1.2342    5.0284 C.3     1  LIG1        0.0000
     27 C27         4.7002   -1.6224    5.7762 C.3     1  LIG1        0.0000
     28 C28         3.3119   -1.5278    3.6739 C.3     1  LIG1        0.0000
     29 C29         2.1552   -1.1725    2.9886 C.3     1  LIG1        0.0000
     30 N30         2.8477    1.4184    2.5825 N.2     1  LIG1        0.0000
     31 H           6.3437    4.1811    5.9310 H       1  LIG1        0.0000
     32 H           5.8252    2.6762    6.2958 H       1  LIG1        0.0000
     33 H           6.8447    2.9069    5.0411 H       1  LIG1        0.0000
     34 H           2.8579    4.5359    3.1617 H       1  LIG1        0.0000
     35 H           1.0272    3.7768    1.5390 H       1  LIG1        0.0000
     36 H           0.6733    1.5311    0.2182 H       1  LIG1        0.0000
     37 H           1.5311    0.2182    0.6733 H       1  LIG1        0.0000
     38 H          -3.8548    2.0411    1.6211 H       1  LIG1        0.0000
     39 H          -6.2507    1.9788    1.6073 H       1  LIG1        0.0000
     40 H          -8.2321   -0.8899    2.6438 H       1  LIG1        0.0000
     41 H          -8.2685    0.7198    2.9164 H       1  LIG1        0.0000
     42 H          -8.2459    0.1512    1.3857 H       1  LIG1        0.0000
     43 H          -6.1656   -1.9047    3.0477 H       1  LIG1        0.0000
     44 H          -3.7698   -1.8511    3.0648 H       1  LIG1        0.0000
     45 H          -0.9842   -1.4234    5.1310 H       1  LIG1        0.0000
     46 H          -2.3584   -0.5417    5.1635 H       1  LIG1        0.0000
     47 H          -2.3158   -1.9577    4.3512 H       1  LIG1        0.0000
     48 H           0.5040    0.2372    5.5083 H       1  LIG1        0.0000
     49 H           2.5021   -0.3808    6.6790 H       1  LIG1        0.0000
     50 H           5.3334   -2.0749    5.1482 H       1  LIG1        0.0000
     51 H           5.1316   -0.8015    6.1504 H       1  LIG1        0.0000
     52 H           4.4679   -2.2465    6.5223 H       1  LIG1        0.0000
     53 H           4.0545   -1.9943    3.1933 H       1  LIG1        0.0000
     54 H           2.0602   -1.3800    2.0150 H       1  LIG1        0.0000
@<TRIPOS>BOND
     1     1     2    1
     2     2     3    1
     3     3     4    2
     4     3     5    1
     5     5     6    1
     6     6     7    2
     7     7     8    1
     8     8     9    1
     9     9    10    1
    10    10    11    1
    11    11    12    2
    12    12    13    1
    13    13    14   ar
    14    14    15   ar
    15    15    16   ar
    16    16    17    1
    17    16    18   ar
    18    18    19   ar
    19    19    13   ar
    20    12    20    1
    21    20    21    1
    22    20    22    2
    23    22    10    1
    24    22    23    1
    25    23    24   ar
    26    24    25   ar
    27    25    26   ar
    28    26    27    1
    29    26    28   ar
    30    28    29   ar
    31    29    23   ar
    32     8    30    1
    33    30     5    2
    34     1    31    1
    35     1    32    1
    36     1    33    1
    37     6    34    1
    38     7    35    1
    39     9    36    1
    40     9    37    1
    41    14    38    1
    42    15    39    1
    43    17    40    1
    44    17    41    1
    45    17    42    1
    46    18    43    1
    47    19    44    1
    48    21    45    1
    49    21    46    1
    50    21    47    1
    51    24    48    1
    52    25    49    1
    53    27    50    1
    54    27    51    1
    55    27    52    1
    56    28    53    1
    57    29    54    1
