@<TRIPOS>MOLECULE
*****
 54 57 0 0 0
SMALL
USER_CHARGES

@<TRIPOS>ATOM
      1 C1          3.8720    6.6545    4.3977 C.3     1  LIG1        0.0000
      2 O2          3.7761    5.2780    4.0623 O.3     1  LIG1        0.0000
      3 C3          2.8195    4.9674    3.2229 C.2     1  LIG1        0.0000
      4 O4          2.0973    5.8238    2.7927 O.2     1  LIG1        0.0000
      5 C5          2.6335    3.5886    2.8134 C.2     1  LIG1        0.0000
      6 C6          3.4069    2.4855    3.2402 C.2     1  LIG1        0.0000
      7 C7          2.8857    1.3973    2.6100 C.2     1  LIG1        0.0000
      8 N8          1.8489    1.8489    1.8489 N.pl3   1  LIG1        0.0000
      9 C9          1.0000    1.0000    1.0000 C.3     1  LIG1        0.0000
     10 N10        -0.1499    0.5195    1.7812 N.pl3   1  LIG1        0.0000
     11 N11        -0.1794   -0.5884    2.4824 N.2     1  LIG1        0.0000
     12 C12        -1.3458   -0.7272    3.0551 C.2     1  LIG1        0.0000
     13 C13        -1.7668   -1.8217    3.9075 C.3     1  LIG1        0.0000
     14 C14        -1.3939   -3.1223    3.5847 C.3     1  LIG1        0.0000
     15 C15        -1.8005   -4.1692    4.4055 C.3     1  LIG1        0.0000
     16 C16        -2.5716   -3.9094    5.5333 C.3     1  LIG1        0.0000
     17 C17        -3.0116   -5.0588    6.4241 C.3     1  LIG1        0.0000
     18 C18        -2.9392   -2.6051    5.8494 C.3     1  LIG1        0.0000
     19 C19        -2.5372   -1.5525    5.0344 C.3     1  LIG1        0.0000
     20 C20        -2.1298    0.3889    2.6942 C.2     1  LIG1        0.0000
     21 C21        -3.5598    0.6749    3.1209 C.3     1  LIG1        0.0000
     22 C22        -1.3493    1.1535    1.8911 C.2     1  LIG1        0.0000
     23 C23        -1.7256    2.4094    1.2724 C.3     1  LIG1        0.0000
     24 C24        -2.2939    3.4122    2.0511 C.3     1  LIG1        0.0000
     25 C25        -2.6536    4.6154    1.4529 C.3     1  LIG1        0.0000
     26 C26        -2.4447    4.8045    0.0910 C.3     1  LIG1        0.0000
     27 C27        -2.8408    6.1216   -0.5543 C.3     1  LIG1        0.0000
     28 C28        -1.8746    3.7964   -0.6803 C.3     1  LIG1        0.0000
     29 C29        -1.5121    2.5904   -0.0905 C.3     1  LIG1        0.0000
     30 N30         1.7181    3.1473    1.9832 N.2     1  LIG1        0.0000
     31 H           4.6269    6.7894    5.0396 H       1  LIG1        0.0000
     32 H           4.0396    7.1886    3.5690 H       1  LIG1        0.0000
     33 H           3.0171    6.9549    4.8207 H       1  LIG1        0.0000
     34 H           4.1791    2.5011    3.8753 H       1  LIG1        0.0000
     35 H           3.2015    0.4519    2.6897 H       1  LIG1        0.0000
     36 H           0.6733    1.5311    0.2182 H       1  LIG1        0.0000
     37 H           1.5311    0.2182    0.6733 H       1  LIG1        0.0000
     38 H          -0.8400   -3.3027    2.7719 H       1  LIG1        0.0000
     39 H          -1.5383   -5.1086    4.1846 H       1  LIG1        0.0000
     40 H          -3.5542   -4.7022    7.1846 H       1  LIG1        0.0000
     41 H          -3.5644   -5.7001    5.8920 H       1  LIG1        0.0000
     42 H          -2.2057   -5.5305    6.7819 H       1  LIG1        0.0000
     43 H          -3.4925   -2.4247    6.6626 H       1  LIG1        0.0000
     44 H          -2.7987   -0.6130    5.2557 H       1  LIG1        0.0000
     45 H          -3.8628    1.5368    2.7145 H       1  LIG1        0.0000
     46 H          -4.1547   -0.0670    2.8114 H       1  LIG1        0.0000
     47 H          -3.6029    0.7429    4.1177 H       1  LIG1        0.0000
     48 H          -2.4421    3.2697    3.0297 H       1  LIG1        0.0000
     49 H          -3.0623    5.3443    2.0021 H       1  LIG1        0.0000
     50 H          -2.6249    6.0929   -1.5303 H       1  LIG1        0.0000
     51 H          -3.8225    6.2697   -0.4343 H       1  LIG1        0.0000
     52 H          -2.3358    6.8693   -0.1231 H       1  LIG1        0.0000
     53 H          -1.7256    3.9392   -1.6588 H       1  LIG1        0.0000
     54 H          -1.1027    1.8617   -0.6395 H       1  LIG1        0.0000
@<TRIPOS>BOND
     1     1     2    1
     2     2     3    1
     3     3     4    2
     4     3     5    1
     5     5     6    1
     6     6     7    2
     7     7     8    1
     8     8     9    1
     9     9    10    1
    10    10    11    1
    11    11    12    2
    12    12    13    1
    13    13    14   ar
    14    14    15   ar
    15    15    16   ar
    16    16    17    1
    17    16    18   ar
    18    18    19   ar
    19    19    13   ar
    20    12    20    1
    21    20    21    1
    22    20    22    2
    23    22    10    1
    24    22    23    1
    25    23    24   ar
    26    24    25   ar
    27    25    26   ar
    28    26    27    1
    29    26    28   ar
    30    28    29   ar
    31    29    23   ar
    32     8    30    1
    33    30     5    2
    34     1    31    1
    35     1    32    1
    36     1    33    1
    37     6    34    1
    38     7    35    1
    39     9    36    1
    40     9    37    1
    41    14    38    1
    42    15    39    1
    43    17    40    1
    44    17    41    1
    45    17    42    1
    46    18    43    1
    47    19    44    1
    48    21    45    1
    49    21    46    1
    50    21    47    1
    51    24    48    1
    52    25    49    1
    53    27    50    1
    54    27    51    1
    55    27    52    1
    56    28    53    1
    57    29    54    1
