@<TRIPOS>MOLECULE
*****
 54 57 0 0 0
SMALL
USER_CHARGES

@<TRIPOS>ATOM
      1 C1          6.1903    1.2712    5.2715 C.3     1  LIG1        0.0000
      2 O2          5.0933    1.2221    4.3711 O.3     1  LIG1        0.0000
      3 C3          4.5204    2.3725    4.1170 C.2     1  LIG1        0.0000
      4 O4          4.9306    3.3744    4.6345 O.2     1  LIG1        0.0000
      5 C5          3.3902    2.4351    3.2102 C.2     1  LIG1        0.0000
      6 C6          2.6815    3.6029    2.8482 C.2     1  LIG1        0.0000
      7 C7          1.7096    3.1980    1.9853 C.2     1  LIG1        0.0000
      8 N8          1.8489    1.8489    1.8489 N.pl3   1  LIG1        0.0000
      9 C9          1.0000    1.0000    1.0000 C.3     1  LIG1        0.0000
     10 N10        -0.1499    0.5195    1.7812 N.pl3   1  LIG1        0.0000
     11 N11        -0.0751   -0.1274    2.9196 N.2     1  LIG1        0.0000
     12 C12        -1.2739   -0.4141    3.3535 C.2     1  LIG1        0.0000
     13 C13        -1.6061   -1.1240    4.5732 C.3     1  LIG1        0.0000
     14 C14        -0.8386   -2.2183    4.9582 C.3     1  LIG1        0.0000
     15 C15        -1.1614   -2.8964    6.1290 C.3     1  LIG1        0.0000
     16 C16        -2.2415   -2.4787    6.8991 C.3     1  LIG1        0.0000
     17 C17        -2.5873   -3.2253    8.1764 C.3     1  LIG1        0.0000
     18 C18        -3.0033   -1.3823    6.5072 C.3     1  LIG1        0.0000
     19 C19        -2.6877   -0.6986    5.3381 C.3     1  LIG1        0.0000
     20 C20        -2.1965    0.0961    2.4161 C.2     1  LIG1        0.0000
     21 C21        -3.7118    0.0122    2.4896 C.3     1  LIG1        0.0000
     22 C22        -1.4577    0.6761    1.4380 C.2     1  LIG1        0.0000
     23 C23        -1.9697    1.3391    0.2548 C.3     1  LIG1        0.0000
     24 C24        -1.3620    2.5082   -0.1910 C.3     1  LIG1        0.0000
     25 C25        -1.8569    3.1409   -1.3266 C.3     1  LIG1        0.0000
     26 C26        -2.9480    2.6043   -2.0017 C.3     1  LIG1        0.0000
     27 C27        -3.4824    3.3020   -3.2410 C.3     1  LIG1        0.0000
     28 C28        -3.5493    1.4337   -1.5495 C.3     1  LIG1        0.0000
     29 C29        -3.0609    0.7946   -0.4150 C.3     1  LIG1        0.0000
     30 N30         2.8477    1.4184    2.5825 N.2     1  LIG1        0.0000
     31 H           6.5573    0.3500    5.4003 H       1  LIG1        0.0000
     32 H           6.9028    1.8645    4.8967 H       1  LIG1        0.0000
     33 H           5.8833    1.6338    6.1514 H       1  LIG1        0.0000
     34 H           2.8579    4.5359    3.1617 H       1  LIG1        0.0000
     35 H           1.0272    3.7768    1.5390 H       1  LIG1        0.0000
     36 H           0.6733    1.5311    0.2182 H       1  LIG1        0.0000
     37 H           1.5311    0.2182    0.6733 H       1  LIG1        0.0000
     38 H          -0.0637   -2.5141    4.3997 H       1  LIG1        0.0000
     39 H          -0.6169   -3.6842    6.4170 H       1  LIG1        0.0000
     40 H          -3.3835   -2.7996    8.6062 H       1  LIG1        0.0000
     41 H          -2.7958   -4.1789    7.9590 H       1  LIG1        0.0000
     42 H          -1.8101   -3.1889    8.8046 H       1  LIG1        0.0000
     43 H          -3.7777   -1.0860    7.0661 H       1  LIG1        0.0000
     44 H          -3.2317    0.0897    5.0505 H       1  LIG1        0.0000
     45 H          -4.1097    0.4591    1.6883 H       1  LIG1        0.0000
     46 H          -3.9919   -0.9476    2.5094 H       1  LIG1        0.0000
     47 H          -4.0311    0.4698    3.3194 H       1  LIG1        0.0000
     48 H          -0.5782    2.8895    0.2993 H       1  LIG1        0.0000
     49 H          -1.4283    3.9816   -1.6575 H       1  LIG1        0.0000
     50 H          -4.2619    2.7900   -3.6017 H       1  LIG1        0.0000
     51 H          -3.7736    4.2284   -3.0024 H       1  LIG1        0.0000
     52 H          -2.7633    3.3468   -3.9344 H       1  LIG1        0.0000
     53 H          -4.3325    1.0521   -2.0402 H       1  LIG1        0.0000
     54 H          -3.4891   -0.0465   -0.0845 H       1  LIG1        0.0000
@<TRIPOS>BOND
     1     1     2    1
     2     2     3    1
     3     3     4    2
     4     3     5    1
     5     5     6    1
     6     6     7    2
     7     7     8    1
     8     8     9    1
     9     9    10    1
    10    10    11    1
    11    11    12    2
    12    12    13    1
    13    13    14   ar
    14    14    15   ar
    15    15    16   ar
    16    16    17    1
    17    16    18   ar
    18    18    19   ar
    19    19    13   ar
    20    12    20    1
    21    20    21    1
    22    20    22    2
    23    22    10    1
    24    22    23    1
    25    23    24   ar
    26    24    25   ar
    27    25    26   ar
    28    26    27    1
    29    26    28   ar
    30    28    29   ar
    31    29    23   ar
    32     8    30    1
    33    30     5    2
    34     1    31    1
    35     1    32    1
    36     1    33    1
    37     6    34    1
    38     7    35    1
    39     9    36    1
    40     9    37    1
    41    14    38    1
    42    15    39    1
    43    17    40    1
    44    17    41    1
    45    17    42    1
    46    18    43    1
    47    19    44    1
    48    21    45    1
    49    21    46    1
    50    21    47    1
    51    24    48    1
    52    25    49    1
    53    27    50    1
    54    27    51    1
    55    27    52    1
    56    28    53    1
    57    29    54    1
