@<TRIPOS>MOLECULE

  62   66
SMALL
USER_CHARGES
@<TRIPOS>ATOM
   1 C1          -6.6131     5.2620    -1.0467 C.3          1    LIG   0.0000
   2 C2          -5.3094     4.4996    -1.2186 C.3          1    LIG   0.0000
   3 O3          -4.7761     4.1801     0.0581 O.3          1    LIG   0.0000
   4 C4          -3.6113     3.4981     0.0471 C.ar         1    LIG   0.0000
   5 C5          -3.0144     3.1417     1.2520 C.ar         1    LIG   0.0000
   6 C6          -1.8149     2.4371     1.2315 C.ar         1    LIG   0.0000
   7 C7          -1.2279     2.0980     0.0165 C.ar         1    LIG   0.0000
   8 N8          -0.0198     1.3896     0.0067 N.pl3        1    LIG   0.0000
   9 C9           1.1574     2.0939     0.0066 C.2          1    LIG   0.0000
  10 O10          1.1363     3.4445     0.0158 O.3          1    LIG  -1.0000
  11 C11          2.3691     1.4501    -0.0037 C.2          1    LIG   0.0000
  12 C12          3.5761     2.2574    -0.0030 C.2          1    LIG   0.0000
  13 N13          4.6144     1.8297    -0.5519 N.2          1    LIG   0.0000
  14 C14          5.8212     2.5358    -0.6008 C.2          1    LIG   0.0000
  15 C15          6.0459     3.7702    -0.0766 C.2          1    LIG   0.0000
  16 C16          7.3923     4.0651    -0.3739 C.2          1    LIG   0.0000
  17 C17          8.1360     5.3368     0.0024 C.3          1    LIG   0.0000
  18 N18          7.8923     3.0453    -1.0320 N.2          1    LIG   0.0000
  19 N19          6.9777     2.1178    -1.1836 N.pl3        1    LIG   0.0000
  20 C20          7.1638     0.8909    -1.8433 C.ar         1    LIG   0.0000
  21 N21          6.1601     0.0001    -1.9478 N.ar         1    LIG   0.0000
  22 C22          6.2856    -1.1871    -2.5680 C.ar         1    LIG   0.0000
  23 C23          5.1441    -2.1919    -2.6839 C.3          1    LIG   0.0000
  24 C24          7.5208    -1.4964    -3.1280 C.ar         1    LIG   0.0000
  25 C25          8.5731    -0.5913    -3.0342 C.ar         1    LIG   0.0000
  26 C26          9.9181    -0.9515    -3.6541 C.3          1    LIG   0.0000
  27 N27          8.3494     0.5687    -2.3937 N.ar         1    LIG   0.0000
  28 C28          2.4027     0.0265    -0.0143 C.ar         1    LIG   0.0000
  29 C29          3.6040    -0.6795    -0.0254 C.ar         1    LIG   0.0000
  30 C30          3.6498    -2.0694    -0.0341 C.ar         1    LIG   0.0000
  31 C31          2.4545    -2.7804    -0.0316 C.ar         1    LIG   0.0000
  32 C32          1.2520    -2.0817    -0.0209 C.ar         1    LIG   0.0000
  33 C33          1.2069    -0.6888    -0.0127 C.ar         1    LIG   0.0000
  34 C34         -0.0289     0.0173    -0.0024 C.2          1    LIG   0.0000
  35 O35         -1.1072    -0.5600    -0.0015 O.2          1    LIG   0.0000
  36 C36         -1.8325     2.4587    -1.1828 C.ar         1    LIG   0.0000
  37 C37         -3.0316     3.1629    -1.1723 C.ar         1    LIG   0.0000
  38 H           -6.9887     5.4870    -1.9458 H            1    LIG   0.0000
  39 H           -7.2667     4.6958    -0.5446 H            1    LIG   0.0000
  40 H           -6.4416     6.1049    -0.5367 H            1    LIG   0.0000
  41 H           -5.4810     3.6567    -1.7286 H            1    LIG   0.0000
  42 H           -4.6558     5.0659    -1.7207 H            1    LIG   0.0000
  43 H           -3.4418     3.3888     2.1216 H            1    LIG   0.0000
  44 H           -1.3746     2.1744     2.0901 H            1    LIG   0.0000
  45 H            3.5765     3.1556     0.4367 H            1    LIG   0.0000
  46 H            5.3941     4.3469     0.4157 H            1    LIG   0.0000
  47 H            7.5203     5.9482     0.4996 H            1    LIG   0.0000
  48 H            8.9174     5.1068     0.5824 H            1    LIG   0.0000
  49 H            8.4592     5.7919    -0.8273 H            1    LIG   0.0000
  50 H            5.4603    -2.9997    -3.1815 H            1    LIG   0.0000
  51 H            4.8426    -2.4609    -1.7691 H            1    LIG   0.0000
  52 H            4.3811    -1.7742    -3.1770 H            1    LIG   0.0000
  53 H            7.6523    -2.3692    -3.5979 H            1    LIG   0.0000
  54 H            9.8590    -1.8560    -4.0765 H            1    LIG   0.0000
  55 H           10.1568    -0.2738    -4.3496 H            1    LIG   0.0000
  56 H           10.6211    -0.9611    -2.9429 H            1    LIG   0.0000
  57 H            4.4636    -0.1686    -0.0271 H            1    LIG   0.0000
  58 H            4.5270    -2.5493    -0.0421 H            1    LIG   0.0000
  59 H            2.4596    -3.7804    -0.0375 H            1    LIG   0.0000
  60 H            0.3935    -2.5944    -0.0191 H            1    LIG   0.0000
  61 H           -1.4052     2.2118    -2.0525 H            1    LIG   0.0000
  62 H           -3.4719     3.4253    -2.0309 H            1    LIG   0.0000
@<TRIPOS>BOND
   1        1        2 1
   2        2        3 1
   3        3        4 1
   4        4        5 ar
   5        5        6 ar
   6        6        7 ar
   7        7        8 1
   8        8        9 1
   9        9       10 1
  10        9       11 2
  11       11       12 1
  12       12       13 2
  13       13       14 1
  14       14       15 2
  15       15       16 1
  16       16       17 1
  17       16       18 2
  18       18       19 1
  19       19       14 1
  20       19       20 1
  21       20       21 ar
  22       21       22 ar
  23       22       23 1
  24       22       24 ar
  25       24       25 ar
  26       25       26 1
  27       25       27 ar
  28       27       20 ar
  29       11       28 1
  30       28       29 ar
  31       29       30 ar
  32       30       31 ar
  33       31       32 ar
  34       32       33 ar
  35       33       28 ar
  36       33       34 1
  37       34        8 1
  38       34       35 2
  39        7       36 ar
  40       36       37 ar
  41       37        4 ar
  42        1       38 1
  43        1       39 1
  44        1       40 1
  45        2       41 1
  46        2       42 1
  47        5       43 1
  48        6       44 1
  49       12       45 1
  50       15       46 1
  51       17       47 1
  52       17       48 1
  53       17       49 1
  54       23       50 1
  55       23       51 1
  56       23       52 1
  57       24       53 1
  58       26       54 1
  59       26       55 1
  60       26       56 1
  61       29       57 1
  62       30       58 1
  63       31       59 1
  64       32       60 1
  65       36       61 1
  66       37       62 1

@<TRIPOS>MOLECULE

  62   66
SMALL
USER_CHARGES
@<TRIPOS>ATOM
   1 C1          -6.6029     5.2435     1.1972 C.3          1    LIG   0.0000
   2 C2          -5.2978     4.4784     1.3446 C.3          1    LIG   0.0000
   3 O3          -4.7761     4.1801     0.0581 O.3          1    LIG   0.0000
   4 C4          -3.6113     3.4981     0.0471 C.ar         1    LIG   0.0000
   5 C5          -3.0144     3.1417     1.2520 C.ar         1    LIG   0.0000
   6 C6          -1.8149     2.4371     1.2315 C.ar         1    LIG   0.0000
   7 C7          -1.2279     2.0980     0.0165 C.ar         1    LIG   0.0000
   8 N8          -0.0198     1.3896     0.0067 N.pl3        1    LIG   0.0000
   9 C9           1.1574     2.0939     0.0066 C.2          1    LIG   0.0000
  10 O10          1.1363     3.4445     0.0158 O.3          1    LIG  -1.0000
  11 C11          2.3691     1.4501    -0.0037 C.2          1    LIG   0.0000
  12 C12          3.5761     2.2574    -0.0030 C.2          1    LIG   0.0000
  13 N13          4.6144     1.8297    -0.5519 N.2          1    LIG   0.0000
  14 C14          5.8212     2.5358    -0.6008 C.2          1    LIG   0.0000
  15 C15          6.0459     3.7702    -0.0766 C.2          1    LIG   0.0000
  16 C16          7.3923     4.0651    -0.3739 C.2          1    LIG   0.0000
  17 C17          8.1360     5.3368     0.0024 C.3          1    LIG   0.0000
  18 N18          7.8923     3.0453    -1.0320 N.2          1    LIG   0.0000
  19 N19          6.9777     2.1178    -1.1836 N.pl3        1    LIG   0.0000
  20 C20          7.1638     0.8909    -1.8433 C.ar         1    LIG   0.0000
  21 N21          6.1601     0.0001    -1.9478 N.ar         1    LIG   0.0000
  22 C22          6.2856    -1.1871    -2.5680 C.ar         1    LIG   0.0000
  23 C23          5.1441    -2.1919    -2.6839 C.3          1    LIG   0.0000
  24 C24          7.5208    -1.4964    -3.1280 C.ar         1    LIG   0.0000
  25 C25          8.5731    -0.5913    -3.0342 C.ar         1    LIG   0.0000
  26 C26          9.9181    -0.9515    -3.6541 C.3          1    LIG   0.0000
  27 N27          8.3494     0.5687    -2.3937 N.ar         1    LIG   0.0000
  28 C28          2.4027     0.0265    -0.0143 C.ar         1    LIG   0.0000
  29 C29          3.6040    -0.6795    -0.0254 C.ar         1    LIG   0.0000
  30 C30          3.6498    -2.0694    -0.0341 C.ar         1    LIG   0.0000
  31 C31          2.4545    -2.7804    -0.0316 C.ar         1    LIG   0.0000
  32 C32          1.2520    -2.0817    -0.0209 C.ar         1    LIG   0.0000
  33 C33          1.2069    -0.6888    -0.0127 C.ar         1    LIG   0.0000
  34 C34         -0.0289     0.0173    -0.0024 C.2          1    LIG   0.0000
  35 O35         -1.1072    -0.5600    -0.0015 O.2          1    LIG   0.0000
  36 C36         -1.8325     2.4587    -1.1828 C.ar         1    LIG   0.0000
  37 C37         -3.0316     3.1629    -1.1723 C.ar         1    LIG   0.0000
  38 H           -6.9704     5.4535     2.1032 H            1    LIG   0.0000
  39 H           -6.4360     6.0947     0.6997 H            1    LIG   0.0000
  40 H           -7.2611     4.6855     0.6917 H            1    LIG   0.0000
  41 H           -4.6396     5.0363     1.8501 H            1    LIG   0.0000
  42 H           -5.4648     3.6271     1.8422 H            1    LIG   0.0000
  43 H           -3.4418     3.3888     2.1216 H            1    LIG   0.0000
  44 H           -1.3746     2.1744     2.0901 H            1    LIG   0.0000
  45 H            3.5765     3.1556     0.4367 H            1    LIG   0.0000
  46 H            5.3941     4.3469     0.4157 H            1    LIG   0.0000
  47 H            7.5203     5.9482     0.4996 H            1    LIG   0.0000
  48 H            8.9174     5.1068     0.5824 H            1    LIG   0.0000
  49 H            8.4592     5.7919    -0.8273 H            1    LIG   0.0000
  50 H            5.4603    -2.9997    -3.1815 H            1    LIG   0.0000
  51 H            4.8426    -2.4609    -1.7691 H            1    LIG   0.0000
  52 H            4.3811    -1.7742    -3.1770 H            1    LIG   0.0000
  53 H            7.6523    -2.3692    -3.5979 H            1    LIG   0.0000
  54 H            9.8590    -1.8560    -4.0765 H            1    LIG   0.0000
  55 H           10.1568    -0.2738    -4.3496 H            1    LIG   0.0000
  56 H           10.6211    -0.9611    -2.9429 H            1    LIG   0.0000
  57 H            4.4636    -0.1686    -0.0271 H            1    LIG   0.0000
  58 H            4.5270    -2.5493    -0.0421 H            1    LIG   0.0000
  59 H            2.4596    -3.7804    -0.0375 H            1    LIG   0.0000
  60 H            0.3935    -2.5944    -0.0191 H            1    LIG   0.0000
  61 H           -1.4052     2.2118    -2.0525 H            1    LIG   0.0000
  62 H           -3.4719     3.4253    -2.0309 H            1    LIG   0.0000
@<TRIPOS>BOND
   1        1        2 1
   2        2        3 1
   3        3        4 1
   4        4        5 ar
   5        5        6 ar
   6        6        7 ar
   7        7        8 1
   8        8        9 1
   9        9       10 1
  10        9       11 2
  11       11       12 1
  12       12       13 2
  13       13       14 1
  14       14       15 2
  15       15       16 1
  16       16       17 1
  17       16       18 2
  18       18       19 1
  19       19       14 1
  20       19       20 1
  21       20       21 ar
  22       21       22 ar
  23       22       23 1
  24       22       24 ar
  25       24       25 ar
  26       25       26 1
  27       25       27 ar
  28       27       20 ar
  29       11       28 1
  30       28       29 ar
  31       29       30 ar
  32       30       31 ar
  33       31       32 ar
  34       32       33 ar
  35       33       28 ar
  36       33       34 1
  37       34        8 1
  38       34       35 2
  39        7       36 ar
  40       36       37 ar
  41       37        4 ar
  42        1       38 1
  43        1       39 1
  44        1       40 1
  45        2       41 1
  46        2       42 1
  47        5       43 1
  48        6       44 1
  49       12       45 1
  50       15       46 1
  51       17       47 1
  52       17       48 1
  53       17       49 1
  54       23       50 1
  55       23       51 1
  56       23       52 1
  57       24       53 1
  58       26       54 1
  59       26       55 1
  60       26       56 1
  61       29       57 1
  62       30       58 1
  63       31       59 1
  64       32       60 1
  65       36       61 1
  66       37       62 1

@<TRIPOS>MOLECULE

  62   66
SMALL
USER_CHARGES
@<TRIPOS>ATOM
   1 C1          -6.6131     5.2620    -1.0467 C.3          1    LIG   0.0000
   2 C2          -5.3094     4.4996    -1.2186 C.3          1    LIG   0.0000
   3 O3          -4.7761     4.1801     0.0581 O.3          1    LIG   0.0000
   4 C4          -3.6113     3.4981     0.0471 C.ar         1    LIG   0.0000
   5 C5          -3.0144     3.1417     1.2520 C.ar         1    LIG   0.0000
   6 C6          -1.8149     2.4371     1.2315 C.ar         1    LIG   0.0000
   7 C7          -1.2279     2.0980     0.0165 C.ar         1    LIG   0.0000
   8 N8          -0.0198     1.3896     0.0067 N.pl3        1    LIG   0.0000
   9 C9           1.1574     2.0939     0.0066 C.2          1    LIG   0.0000
  10 O10          1.1363     3.4445     0.0158 O.3          1    LIG  -1.0000
  11 C11          2.3691     1.4501    -0.0037 C.2          1    LIG   0.0000
  12 C12          3.5761     2.2574    -0.0030 C.2          1    LIG   0.0000
  13 N13          4.6144     1.8297    -0.5519 N.2          1    LIG   0.0000
  14 C14          5.8212     2.5358    -0.6008 C.2          1    LIG   0.0000
  15 C15          6.0459     3.7702    -0.0766 C.2          1    LIG   0.0000
  16 C16          7.3923     4.0651    -0.3739 C.2          1    LIG   0.0000
  17 C17          8.1360     5.3368     0.0024 C.3          1    LIG   0.0000
  18 N18          7.8923     3.0453    -1.0320 N.2          1    LIG   0.0000
  19 N19          6.9777     2.1178    -1.1836 N.pl3        1    LIG   0.0000
  20 C20          7.1638     0.8909    -1.8433 C.ar         1    LIG   0.0000
  21 N21          6.9286     0.7702    -3.1632 N.ar         1    LIG   0.0000
  22 C22          7.0908    -0.3800    -3.8418 C.ar         1    LIG   0.0000
  23 C23          6.8236    -0.5102    -5.3377 C.3          1    LIG   0.0000
  24 C24          7.5267    -1.4937    -3.1314 C.ar         1    LIG   0.0000
  25 C25          7.7777    -1.3935    -1.7667 C.ar         1    LIG   0.0000
  26 C26          8.2536    -2.6268    -1.0081 C.3          1    LIG   0.0000
  27 N27          7.5852    -0.2009    -1.1780 N.ar         1    LIG   0.0000
  28 C28          2.4027     0.0265    -0.0143 C.ar         1    LIG   0.0000
  29 C29          3.6040    -0.6795    -0.0254 C.ar         1    LIG   0.0000
  30 C30          3.6498    -2.0694    -0.0341 C.ar         1    LIG   0.0000
  31 C31          2.4545    -2.7804    -0.0316 C.ar         1    LIG   0.0000
  32 C32          1.2520    -2.0817    -0.0209 C.ar         1    LIG   0.0000
  33 C33          1.2069    -0.6888    -0.0127 C.ar         1    LIG   0.0000
  34 C34         -0.0289     0.0173    -0.0024 C.2          1    LIG   0.0000
  35 O35         -1.1072    -0.5600    -0.0015 O.2          1    LIG   0.0000
  36 C36         -1.8325     2.4587    -1.1828 C.ar         1    LIG   0.0000
  37 C37         -3.0316     3.1629    -1.1723 C.ar         1    LIG   0.0000
  38 H           -6.9887     5.4870    -1.9458 H            1    LIG   0.0000
  39 H           -7.2667     4.6958    -0.5446 H            1    LIG   0.0000
  40 H           -6.4416     6.1049    -0.5367 H            1    LIG   0.0000
  41 H           -5.4810     3.6567    -1.7286 H            1    LIG   0.0000
  42 H           -4.6558     5.0659    -1.7207 H            1    LIG   0.0000
  43 H           -3.4418     3.3888     2.1216 H            1    LIG   0.0000
  44 H           -1.3746     2.1744     2.0901 H            1    LIG   0.0000
  45 H            3.5765     3.1556     0.4367 H            1    LIG   0.0000
  46 H            5.3941     4.3469     0.4157 H            1    LIG   0.0000
  47 H            7.5203     5.9482     0.4996 H            1    LIG   0.0000
  48 H            8.9174     5.1068     0.5824 H            1    LIG   0.0000
  49 H            8.4592     5.7919    -0.8273 H            1    LIG   0.0000
  50 H            7.0087    -1.4487    -5.6290 H            1    LIG   0.0000
  51 H            5.8678    -0.2850    -5.5265 H            1    LIG   0.0000
  52 H            7.4192     0.1179    -5.8386 H            1    LIG   0.0000
  53 H            7.6597    -2.3662    -3.6015 H            1    LIG   0.0000
  54 H            8.3275    -3.3987    -1.6395 H            1    LIG   0.0000
  55 H            9.1479    -2.4429    -0.6003 H            1    LIG   0.0000
  56 H            7.5974    -2.8481    -0.2866 H            1    LIG   0.0000
  57 H            4.4636    -0.1686    -0.0271 H            1    LIG   0.0000
  58 H            4.5270    -2.5493    -0.0421 H            1    LIG   0.0000
  59 H            2.4596    -3.7804    -0.0375 H            1    LIG   0.0000
  60 H            0.3935    -2.5944    -0.0191 H            1    LIG   0.0000
  61 H           -1.4052     2.2118    -2.0525 H            1    LIG   0.0000
  62 H           -3.4719     3.4253    -2.0309 H            1    LIG   0.0000
@<TRIPOS>BOND
   1        1        2 1
   2        2        3 1
   3        3        4 1
   4        4        5 ar
   5        5        6 ar
   6        6        7 ar
   7        7        8 1
   8        8        9 1
   9        9       10 1
  10        9       11 2
  11       11       12 1
  12       12       13 2
  13       13       14 1
  14       14       15 2
  15       15       16 1
  16       16       17 1
  17       16       18 2
  18       18       19 1
  19       19       14 1
  20       19       20 1
  21       20       21 ar
  22       21       22 ar
  23       22       23 1
  24       22       24 ar
  25       24       25 ar
  26       25       26 1
  27       25       27 ar
  28       27       20 ar
  29       11       28 1
  30       28       29 ar
  31       29       30 ar
  32       30       31 ar
  33       31       32 ar
  34       32       33 ar
  35       33       28 ar
  36       33       34 1
  37       34        8 1
  38       34       35 2
  39        7       36 ar
  40       36       37 ar
  41       37        4 ar
  42        1       38 1
  43        1       39 1
  44        1       40 1
  45        2       41 1
  46        2       42 1
  47        5       43 1
  48        6       44 1
  49       12       45 1
  50       15       46 1
  51       17       47 1
  52       17       48 1
  53       17       49 1
  54       23       50 1
  55       23       51 1
  56       23       52 1
  57       24       53 1
  58       26       54 1
  59       26       55 1
  60       26       56 1
  61       29       57 1
  62       30       58 1
  63       31       59 1
  64       32       60 1
  65       36       61 1
  66       37       62 1

@<TRIPOS>MOLECULE

  62   66
SMALL
USER_CHARGES
@<TRIPOS>ATOM
   1 C1          -6.6029     5.2435     1.1972 C.3          1    LIG   0.0000
   2 C2          -5.2978     4.4784     1.3446 C.3          1    LIG   0.0000
   3 O3          -4.7761     4.1801     0.0581 O.3          1    LIG   0.0000
   4 C4          -3.6113     3.4981     0.0471 C.ar         1    LIG   0.0000
   5 C5          -3.0144     3.1417     1.2520 C.ar         1    LIG   0.0000
   6 C6          -1.8149     2.4371     1.2315 C.ar         1    LIG   0.0000
   7 C7          -1.2279     2.0980     0.0165 C.ar         1    LIG   0.0000
   8 N8          -0.0198     1.3896     0.0067 N.pl3        1    LIG   0.0000
   9 C9           1.1574     2.0939     0.0066 C.2          1    LIG   0.0000
  10 O10          1.1363     3.4445     0.0158 O.3          1    LIG  -1.0000
  11 C11          2.3691     1.4501    -0.0037 C.2          1    LIG   0.0000
  12 C12          3.5761     2.2574    -0.0030 C.2          1    LIG   0.0000
  13 N13          4.6144     1.8297    -0.5519 N.2          1    LIG   0.0000
  14 C14          5.8212     2.5358    -0.6008 C.2          1    LIG   0.0000
  15 C15          6.0459     3.7702    -0.0766 C.2          1    LIG   0.0000
  16 C16          7.3923     4.0651    -0.3739 C.2          1    LIG   0.0000
  17 C17          8.1360     5.3368     0.0024 C.3          1    LIG   0.0000
  18 N18          7.8923     3.0453    -1.0320 N.2          1    LIG   0.0000
  19 N19          6.9777     2.1178    -1.1836 N.pl3        1    LIG   0.0000
  20 C20          7.1638     0.8909    -1.8433 C.ar         1    LIG   0.0000
  21 N21          6.9286     0.7702    -3.1632 N.ar         1    LIG   0.0000
  22 C22          7.0908    -0.3800    -3.8418 C.ar         1    LIG   0.0000
  23 C23          6.8236    -0.5102    -5.3377 C.3          1    LIG   0.0000
  24 C24          7.5267    -1.4937    -3.1314 C.ar         1    LIG   0.0000
  25 C25          7.7777    -1.3935    -1.7667 C.ar         1    LIG   0.0000
  26 C26          8.2536    -2.6268    -1.0081 C.3          1    LIG   0.0000
  27 N27          7.5852    -0.2009    -1.1780 N.ar         1    LIG   0.0000
  28 C28          2.4027     0.0265    -0.0143 C.ar         1    LIG   0.0000
  29 C29          3.6040    -0.6795    -0.0254 C.ar         1    LIG   0.0000
  30 C30          3.6498    -2.0694    -0.0341 C.ar         1    LIG   0.0000
  31 C31          2.4545    -2.7804    -0.0316 C.ar         1    LIG   0.0000
  32 C32          1.2520    -2.0817    -0.0209 C.ar         1    LIG   0.0000
  33 C33          1.2069    -0.6888    -0.0127 C.ar         1    LIG   0.0000
  34 C34         -0.0289     0.0173    -0.0024 C.2          1    LIG   0.0000
  35 O35         -1.1072    -0.5600    -0.0015 O.2          1    LIG   0.0000
  36 C36         -1.8325     2.4587    -1.1828 C.ar         1    LIG   0.0000
  37 C37         -3.0316     3.1629    -1.1723 C.ar         1    LIG   0.0000
  38 H           -6.9704     5.4535     2.1032 H            1    LIG   0.0000
  39 H           -6.4360     6.0947     0.6997 H            1    LIG   0.0000
  40 H           -7.2611     4.6855     0.6917 H            1    LIG   0.0000
  41 H           -4.6396     5.0363     1.8501 H            1    LIG   0.0000
  42 H           -5.4648     3.6271     1.8422 H            1    LIG   0.0000
  43 H           -3.4418     3.3888     2.1216 H            1    LIG   0.0000
  44 H           -1.3746     2.1744     2.0901 H            1    LIG   0.0000
  45 H            3.5765     3.1556     0.4367 H            1    LIG   0.0000
  46 H            5.3941     4.3469     0.4157 H            1    LIG   0.0000
  47 H            7.5203     5.9482     0.4996 H            1    LIG   0.0000
  48 H            8.9174     5.1068     0.5824 H            1    LIG   0.0000
  49 H            8.4592     5.7919    -0.8273 H            1    LIG   0.0000
  50 H            7.0087    -1.4487    -5.6290 H            1    LIG   0.0000
  51 H            5.8678    -0.2850    -5.5265 H            1    LIG   0.0000
  52 H            7.4192     0.1179    -5.8386 H            1    LIG   0.0000
  53 H            7.6597    -2.3662    -3.6015 H            1    LIG   0.0000
  54 H            8.3275    -3.3987    -1.6395 H            1    LIG   0.0000
  55 H            9.1479    -2.4429    -0.6003 H            1    LIG   0.0000
  56 H            7.5974    -2.8481    -0.2866 H            1    LIG   0.0000
  57 H            4.4636    -0.1686    -0.0271 H            1    LIG   0.0000
  58 H            4.5270    -2.5493    -0.0421 H            1    LIG   0.0000
  59 H            2.4596    -3.7804    -0.0375 H            1    LIG   0.0000
  60 H            0.3935    -2.5944    -0.0191 H            1    LIG   0.0000
  61 H           -1.4052     2.2118    -2.0525 H            1    LIG   0.0000
  62 H           -3.4719     3.4253    -2.0309 H            1    LIG   0.0000
@<TRIPOS>BOND
   1        1        2 1
   2        2        3 1
   3        3        4 1
   4        4        5 ar
   5        5        6 ar
   6        6        7 ar
   7        7        8 1
   8        8        9 1
   9        9       10 1
  10        9       11 2
  11       11       12 1
  12       12       13 2
  13       13       14 1
  14       14       15 2
  15       15       16 1
  16       16       17 1
  17       16       18 2
  18       18       19 1
  19       19       14 1
  20       19       20 1
  21       20       21 ar
  22       21       22 ar
  23       22       23 1
  24       22       24 ar
  25       24       25 ar
  26       25       26 1
  27       25       27 ar
  28       27       20 ar
  29       11       28 1
  30       28       29 ar
  31       29       30 ar
  32       30       31 ar
  33       31       32 ar
  34       32       33 ar
  35       33       28 ar
  36       33       34 1
  37       34        8 1
  38       34       35 2
  39        7       36 ar
  40       36       37 ar
  41       37        4 ar
  42        1       38 1
  43        1       39 1
  44        1       40 1
  45        2       41 1
  46        2       42 1
  47        5       43 1
  48        6       44 1
  49       12       45 1
  50       15       46 1
  51       17       47 1
  52       17       48 1
  53       17       49 1
  54       23       50 1
  55       23       51 1
  56       23       52 1
  57       24       53 1
  58       26       54 1
  59       26       55 1
  60       26       56 1
  61       29       57 1
  62       30       58 1
  63       31       59 1
  64       32       60 1
  65       36       61 1
  66       37       62 1

@<TRIPOS>MOLECULE

  62   66
SMALL
USER_CHARGES
@<TRIPOS>ATOM
   1 C1          -6.6131     5.2620    -1.0467 C.3          1    LIG   0.0000
   2 C2          -5.3094     4.4996    -1.2186 C.3          1    LIG   0.0000
   3 O3          -4.7761     4.1801     0.0581 O.3          1    LIG   0.0000
   4 C4          -3.6113     3.4981     0.0471 C.ar         1    LIG   0.0000
   5 C5          -3.0144     3.1417     1.2520 C.ar         1    LIG   0.0000
   6 C6          -1.8149     2.4371     1.2315 C.ar         1    LIG   0.0000
   7 C7          -1.2279     2.0980     0.0165 C.ar         1    LIG   0.0000
   8 N8          -0.0198     1.3896     0.0067 N.pl3        1    LIG   0.0000
   9 C9           1.1574     2.0939     0.0066 C.2          1    LIG   0.0000
  10 O10          1.1363     3.4445     0.0158 O.3          1    LIG  -1.0000
  11 C11          2.3691     1.4501    -0.0037 C.2          1    LIG   0.0000
  12 C12          3.5761     2.2574    -0.0030 C.2          1    LIG   0.0000
  13 N13          4.6144     1.8297    -0.5519 N.2          1    LIG   0.0000
  14 C14          5.8212     2.5358    -0.6008 C.2          1    LIG   0.0000
  15 C15          6.9741     2.1075    -1.1807 C.2          1    LIG   0.0000
  16 C16          7.9060     3.1456    -0.9757 C.2          1    LIG   0.0000
  17 C17          9.3536     3.1560    -1.4408 C.3          1    LIG   0.0000
  18 N18          7.3017     4.1044    -0.3134 N.2          1    LIG   0.0000
  19 N19          6.0568     3.7684    -0.0743 N.pl3        1    LIG   0.0000
  20 C20          5.1192     4.5555     0.6158 C.ar         1    LIG   0.0000
  21 N21          4.9788     4.4565     1.9508 N.ar         1    LIG   0.0000
  22 C22          4.0973     5.1859     2.6586 C.ar         1    LIG   0.0000
  23 C23          3.9437     5.0698     4.1716 C.3          1    LIG   0.0000
  24 C24          3.2977     6.0867     1.9629 C.ar         1    LIG   0.0000
  25 C25          3.4252     6.2080     0.5829 C.ar         1    LIG   0.0000
  26 C26          2.5379     7.2006    -0.1591 C.3          1    LIG   0.0000
  27 N27          4.3341     5.4346    -0.0349 N.ar         1    LIG   0.0000
  28 C28          2.4027     0.0265    -0.0143 C.ar         1    LIG   0.0000
  29 C29          3.6040    -0.6795    -0.0254 C.ar         1    LIG   0.0000
  30 C30          3.6498    -2.0694    -0.0341 C.ar         1    LIG   0.0000
  31 C31          2.4545    -2.7804    -0.0316 C.ar         1    LIG   0.0000
  32 C32          1.2520    -2.0817    -0.0209 C.ar         1    LIG   0.0000
  33 C33          1.2069    -0.6888    -0.0127 C.ar         1    LIG   0.0000
  34 C34         -0.0289     0.0173    -0.0024 C.2          1    LIG   0.0000
  35 O35         -1.1072    -0.5600    -0.0015 O.2          1    LIG   0.0000
  36 C36         -1.8325     2.4587    -1.1828 C.ar         1    LIG   0.0000
  37 C37         -3.0316     3.1629    -1.1723 C.ar         1    LIG   0.0000
  38 H           -6.9887     5.4870    -1.9458 H            1    LIG   0.0000
  39 H           -7.2667     4.6958    -0.5446 H            1    LIG   0.0000
  40 H           -6.4416     6.1049    -0.5367 H            1    LIG   0.0000
  41 H           -5.4810     3.6567    -1.7286 H            1    LIG   0.0000
  42 H           -4.6558     5.0659    -1.7207 H            1    LIG   0.0000
  43 H           -3.4418     3.3888     2.1216 H            1    LIG   0.0000
  44 H           -1.3746     2.1744     2.0901 H            1    LIG   0.0000
  45 H            3.5765     3.1556     0.4367 H            1    LIG   0.0000
  46 H            7.1284     1.2396    -1.6529 H            1    LIG   0.0000
  47 H            9.5554     2.3025    -1.9212 H            1    LIG   0.0000
  48 H            9.4997     3.9288    -2.0583 H            1    LIG   0.0000
  49 H            9.9576     3.2435    -0.6486 H            1    LIG   0.0000
  50 H            3.2344     5.7017     4.4840 H            1    LIG   0.0000
  51 H            3.6846     4.1338     4.4095 H            1    LIG   0.0000
  52 H            4.8115     5.2980     4.6132 H            1    LIG   0.0000
  53 H            2.6312     6.6470     2.4547 H            1    LIG   0.0000
  54 H            1.9399     7.6658     0.4936 H            1    LIG   0.0000
  55 H            3.1100     7.8747    -0.6262 H            1    LIG   0.0000
  56 H            1.9815     6.7124    -0.8315 H            1    LIG   0.0000
  57 H            4.4636    -0.1686    -0.0271 H            1    LIG   0.0000
  58 H            4.5270    -2.5493    -0.0421 H            1    LIG   0.0000
  59 H            2.4596    -3.7804    -0.0375 H            1    LIG   0.0000
  60 H            0.3935    -2.5944    -0.0191 H            1    LIG   0.0000
  61 H           -1.4052     2.2118    -2.0525 H            1    LIG   0.0000
  62 H           -3.4719     3.4253    -2.0309 H            1    LIG   0.0000
@<TRIPOS>BOND
   1        1        2 1
   2        2        3 1
   3        3        4 1
   4        4        5 ar
   5        5        6 ar
   6        6        7 ar
   7        7        8 1
   8        8        9 1
   9        9       10 1
  10        9       11 2
  11       11       12 1
  12       12       13 2
  13       13       14 1
  14       14       15 2
  15       15       16 1
  16       16       17 1
  17       16       18 2
  18       18       19 1
  19       19       14 1
  20       19       20 1
  21       20       21 ar
  22       21       22 ar
  23       22       23 1
  24       22       24 ar
  25       24       25 ar
  26       25       26 1
  27       25       27 ar
  28       27       20 ar
  29       11       28 1
  30       28       29 ar
  31       29       30 ar
  32       30       31 ar
  33       31       32 ar
  34       32       33 ar
  35       33       28 ar
  36       33       34 1
  37       34        8 1
  38       34       35 2
  39        7       36 ar
  40       36       37 ar
  41       37        4 ar
  42        1       38 1
  43        1       39 1
  44        1       40 1
  45        2       41 1
  46        2       42 1
  47        5       43 1
  48        6       44 1
  49       12       45 1
  50       15       46 1
  51       17       47 1
  52       17       48 1
  53       17       49 1
  54       23       50 1
  55       23       51 1
  56       23       52 1
  57       24       53 1
  58       26       54 1
  59       26       55 1
  60       26       56 1
  61       29       57 1
  62       30       58 1
  63       31       59 1
  64       32       60 1
  65       36       61 1
  66       37       62 1

@<TRIPOS>MOLECULE

  62   66
SMALL
USER_CHARGES
@<TRIPOS>ATOM
   1 C1          -6.6029     5.2435     1.1972 C.3          1    LIG   0.0000
   2 C2          -5.2978     4.4784     1.3446 C.3          1    LIG   0.0000
   3 O3          -4.7761     4.1801     0.0581 O.3          1    LIG   0.0000
   4 C4          -3.6113     3.4981     0.0471 C.ar         1    LIG   0.0000
   5 C5          -3.0144     3.1417     1.2520 C.ar         1    LIG   0.0000
   6 C6          -1.8149     2.4371     1.2315 C.ar         1    LIG   0.0000
   7 C7          -1.2279     2.0980     0.0165 C.ar         1    LIG   0.0000
   8 N8          -0.0198     1.3896     0.0067 N.pl3        1    LIG   0.0000
   9 C9           1.1574     2.0939     0.0066 C.2          1    LIG   0.0000
  10 O10          1.1363     3.4445     0.0158 O.3          1    LIG  -1.0000
  11 C11          2.3691     1.4501    -0.0037 C.2          1    LIG   0.0000
  12 C12          3.5761     2.2574    -0.0030 C.2          1    LIG   0.0000
  13 N13          4.6144     1.8297    -0.5519 N.2          1    LIG   0.0000
  14 C14          5.8212     2.5358    -0.6008 C.2          1    LIG   0.0000
  15 C15          6.9741     2.1075    -1.1807 C.2          1    LIG   0.0000
  16 C16          7.9060     3.1456    -0.9757 C.2          1    LIG   0.0000
  17 C17          9.3536     3.1560    -1.4408 C.3          1    LIG   0.0000
  18 N18          7.3017     4.1044    -0.3134 N.2          1    LIG   0.0000
  19 N19          6.0568     3.7684    -0.0743 N.pl3        1    LIG   0.0000
  20 C20          5.1192     4.5555     0.6158 C.ar         1    LIG   0.0000
  21 N21          4.9788     4.4565     1.9508 N.ar         1    LIG   0.0000
  22 C22          4.0973     5.1859     2.6586 C.ar         1    LIG   0.0000
  23 C23          3.9437     5.0698     4.1716 C.3          1    LIG   0.0000
  24 C24          3.2977     6.0867     1.9629 C.ar         1    LIG   0.0000
  25 C25          3.4252     6.2080     0.5829 C.ar         1    LIG   0.0000
  26 C26          2.5379     7.2006    -0.1591 C.3          1    LIG   0.0000
  27 N27          4.3341     5.4346    -0.0349 N.ar         1    LIG   0.0000
  28 C28          2.4027     0.0265    -0.0143 C.ar         1    LIG   0.0000
  29 C29          3.6040    -0.6795    -0.0254 C.ar         1    LIG   0.0000
  30 C30          3.6498    -2.0694    -0.0341 C.ar         1    LIG   0.0000
  31 C31          2.4545    -2.7804    -0.0316 C.ar         1    LIG   0.0000
  32 C32          1.2520    -2.0817    -0.0209 C.ar         1    LIG   0.0000
  33 C33          1.2069    -0.6888    -0.0127 C.ar         1    LIG   0.0000
  34 C34         -0.0289     0.0173    -0.0024 C.2          1    LIG   0.0000
  35 O35         -1.1072    -0.5600    -0.0015 O.2          1    LIG   0.0000
  36 C36         -1.8325     2.4587    -1.1828 C.ar         1    LIG   0.0000
  37 C37         -3.0316     3.1629    -1.1723 C.ar         1    LIG   0.0000
  38 H           -6.9704     5.4535     2.1032 H            1    LIG   0.0000
  39 H           -6.4360     6.0947     0.6997 H            1    LIG   0.0000
  40 H           -7.2611     4.6855     0.6917 H            1    LIG   0.0000
  41 H           -4.6396     5.0363     1.8501 H            1    LIG   0.0000
  42 H           -5.4648     3.6271     1.8422 H            1    LIG   0.0000
  43 H           -3.4418     3.3888     2.1216 H            1    LIG   0.0000
  44 H           -1.3746     2.1744     2.0901 H            1    LIG   0.0000
  45 H            3.5765     3.1556     0.4367 H            1    LIG   0.0000
  46 H            7.1284     1.2396    -1.6529 H            1    LIG   0.0000
  47 H            9.5554     2.3025    -1.9212 H            1    LIG   0.0000
  48 H            9.4997     3.9288    -2.0583 H            1    LIG   0.0000
  49 H            9.9576     3.2435    -0.6486 H            1    LIG   0.0000
  50 H            3.2344     5.7017     4.4840 H            1    LIG   0.0000
  51 H            3.6846     4.1338     4.4095 H            1    LIG   0.0000
  52 H            4.8115     5.2980     4.6132 H            1    LIG   0.0000
  53 H            2.6312     6.6470     2.4547 H            1    LIG   0.0000
  54 H            1.9399     7.6658     0.4936 H            1    LIG   0.0000
  55 H            3.1100     7.8747    -0.6262 H            1    LIG   0.0000
  56 H            1.9815     6.7124    -0.8315 H            1    LIG   0.0000
  57 H            4.4636    -0.1686    -0.0271 H            1    LIG   0.0000
  58 H            4.5270    -2.5493    -0.0421 H            1    LIG   0.0000
  59 H            2.4596    -3.7804    -0.0375 H            1    LIG   0.0000
  60 H            0.3935    -2.5944    -0.0191 H            1    LIG   0.0000
  61 H           -1.4052     2.2118    -2.0525 H            1    LIG   0.0000
  62 H           -3.4719     3.4253    -2.0309 H            1    LIG   0.0000
@<TRIPOS>BOND
   1        1        2 1
   2        2        3 1
   3        3        4 1
   4        4        5 ar
   5        5        6 ar
   6        6        7 ar
   7        7        8 1
   8        8        9 1
   9        9       10 1
  10        9       11 2
  11       11       12 1
  12       12       13 2
  13       13       14 1
  14       14       15 2
  15       15       16 1
  16       16       17 1
  17       16       18 2
  18       18       19 1
  19       19       14 1
  20       19       20 1
  21       20       21 ar
  22       21       22 ar
  23       22       23 1
  24       22       24 ar
  25       24       25 ar
  26       25       26 1
  27       25       27 ar
  28       27       20 ar
  29       11       28 1
  30       28       29 ar
  31       29       30 ar
  32       30       31 ar
  33       31       32 ar
  34       32       33 ar
  35       33       28 ar
  36       33       34 1
  37       34        8 1
  38       34       35 2
  39        7       36 ar
  40       36       37 ar
  41       37        4 ar
  42        1       38 1
  43        1       39 1
  44        1       40 1
  45        2       41 1
  46        2       42 1
  47        5       43 1
  48        6       44 1
  49       12       45 1
  50       15       46 1
  51       17       47 1
  52       17       48 1
  53       17       49 1
  54       23       50 1
  55       23       51 1
  56       23       52 1
  57       24       53 1
  58       26       54 1
  59       26       55 1
  60       26       56 1
  61       29       57 1
  62       30       58 1
  63       31       59 1
  64       32       60 1
  65       36       61 1
  66       37       62 1

@<TRIPOS>MOLECULE

  62   66
SMALL
USER_CHARGES
@<TRIPOS>ATOM
   1 C1          -6.6131     5.2620    -1.0467 C.3          1    LIG   0.0000
   2 C2          -5.3094     4.4996    -1.2186 C.3          1    LIG   0.0000
   3 O3          -4.7761     4.1801     0.0581 O.3          1    LIG   0.0000
   4 C4          -3.6113     3.4981     0.0471 C.ar         1    LIG   0.0000
   5 C5          -3.0144     3.1417     1.2520 C.ar         1    LIG   0.0000
   6 C6          -1.8149     2.4371     1.2315 C.ar         1    LIG   0.0000
   7 C7          -1.2279     2.0980     0.0165 C.ar         1    LIG   0.0000
   8 N8          -0.0198     1.3896     0.0067 N.pl3        1    LIG   0.0000
   9 C9           1.1574     2.0939     0.0066 C.2          1    LIG   0.0000
  10 O10          1.1363     3.4445     0.0158 O.3          1    LIG  -1.0000
  11 C11          2.3691     1.4501    -0.0037 C.2          1    LIG   0.0000
  12 C12          3.5761     2.2574    -0.0030 C.2          1    LIG   0.0000
  13 N13          4.6191     1.8218     0.5306 N.2          1    LIG   0.0000
  14 C14          5.8263     2.5271     0.5793 C.2          1    LIG   0.0000
  15 C15          6.0498     3.7643     0.0613 C.2          1    LIG   0.0000
  16 C16          7.3994     4.0539     0.3489 C.2          1    LIG   0.0000
  17 C17          8.1413     5.3288    -0.0199 C.3          1    LIG   0.0000
  18 N18          7.9028     3.0279     0.9946 N.2          1    LIG   0.0000
  19 N19          6.9878     2.1007     1.1458 N.pl3        1    LIG   0.0000
  20 C20          7.1787     0.8655     1.7886 C.ar         1    LIG   0.0000
  21 N21          6.1743    -0.0243     1.8940 N.ar         1    LIG   0.0000
  22 C22          6.3040    -1.2190     2.4988 C.ar         1    LIG   0.0000
  23 C23          5.1622    -2.2234     2.6141 C.3          1    LIG   0.0000
  24 C24          7.5463    -1.5397     3.0363 C.ar         1    LIG   0.0000
  25 C25          8.6003    -0.6370     2.9388 C.ar         1    LIG   0.0000
  26 C26          9.9524    -1.0088     3.5360 C.3          1    LIG   0.0000
  27 N27          8.3714     0.5319     2.3164 N.ar         1    LIG   0.0000
  28 C28          2.4027     0.0265    -0.0143 C.ar         1    LIG   0.0000
  29 C29          3.6040    -0.6795    -0.0254 C.ar         1    LIG   0.0000
  30 C30          3.6498    -2.0694    -0.0341 C.ar         1    LIG   0.0000
  31 C31          2.4545    -2.7804    -0.0316 C.ar         1    LIG   0.0000
  32 C32          1.2520    -2.0817    -0.0209 C.ar         1    LIG   0.0000
  33 C33          1.2069    -0.6888    -0.0127 C.ar         1    LIG   0.0000
  34 C34         -0.0289     0.0173    -0.0024 C.2          1    LIG   0.0000
  35 O35         -1.1072    -0.5600    -0.0015 O.2          1    LIG   0.0000
  36 C36         -1.8325     2.4587    -1.1828 C.ar         1    LIG   0.0000
  37 C37         -3.0316     3.1629    -1.1723 C.ar         1    LIG   0.0000
  38 H           -6.9887     5.4870    -1.9458 H            1    LIG   0.0000
  39 H           -7.2667     4.6958    -0.5446 H            1    LIG   0.0000
  40 H           -6.4416     6.1049    -0.5367 H            1    LIG   0.0000
  41 H           -5.4810     3.6567    -1.7286 H            1    LIG   0.0000
  42 H           -4.6558     5.0659    -1.7207 H            1    LIG   0.0000
  43 H           -3.4418     3.3888     2.1216 H            1    LIG   0.0000
  44 H           -1.3746     2.1744     2.0901 H            1    LIG   0.0000
  45 H            3.5728     3.1620    -0.4293 H            1    LIG   0.0000
  46 H            5.3952     4.3459    -0.4217 H            1    LIG   0.0000
  47 H            7.5231     5.9450    -0.5079 H            1    LIG   0.0000
  48 H            8.4695     5.7761     0.8121 H            1    LIG   0.0000
  49 H            8.9193     5.1039    -0.6065 H            1    LIG   0.0000
  50 H            5.4820    -3.0375     3.0989 H            1    LIG   0.0000
  51 H            4.4047    -1.8104     3.1197 H            1    LIG   0.0000
  52 H            4.8511    -2.4810     1.6993 H            1    LIG   0.0000
  53 H            7.6816    -2.4190     3.4929 H            1    LIG   0.0000
  54 H            9.8963    -1.9186     3.9472 H            1    LIG   0.0000
  55 H           10.6458    -1.0109     2.8154 H            1    LIG   0.0000
  56 H           10.2021    -0.3409     4.2370 H            1    LIG   0.0000
  57 H            4.4636    -0.1686    -0.0271 H            1    LIG   0.0000
  58 H            4.5270    -2.5493    -0.0421 H            1    LIG   0.0000
  59 H            2.4596    -3.7804    -0.0375 H            1    LIG   0.0000
  60 H            0.3935    -2.5944    -0.0191 H            1    LIG   0.0000
  61 H           -1.4052     2.2118    -2.0525 H            1    LIG   0.0000
  62 H           -3.4719     3.4253    -2.0309 H            1    LIG   0.0000
@<TRIPOS>BOND
   1        1        2 1
   2        2        3 1
   3        3        4 1
   4        4        5 ar
   5        5        6 ar
   6        6        7 ar
   7        7        8 1
   8        8        9 1
   9        9       10 1
  10        9       11 2
  11       11       12 1
  12       12       13 2
  13       13       14 1
  14       14       15 2
  15       15       16 1
  16       16       17 1
  17       16       18 2
  18       18       19 1
  19       19       14 1
  20       19       20 1
  21       20       21 ar
  22       21       22 ar
  23       22       23 1
  24       22       24 ar
  25       24       25 ar
  26       25       26 1
  27       25       27 ar
  28       27       20 ar
  29       11       28 1
  30       28       29 ar
  31       29       30 ar
  32       30       31 ar
  33       31       32 ar
  34       32       33 ar
  35       33       28 ar
  36       33       34 1
  37       34        8 1
  38       34       35 2
  39        7       36 ar
  40       36       37 ar
  41       37        4 ar
  42        1       38 1
  43        1       39 1
  44        1       40 1
  45        2       41 1
  46        2       42 1
  47        5       43 1
  48        6       44 1
  49       12       45 1
  50       15       46 1
  51       17       47 1
  52       17       48 1
  53       17       49 1
  54       23       50 1
  55       23       51 1
  56       23       52 1
  57       24       53 1
  58       26       54 1
  59       26       55 1
  60       26       56 1
  61       29       57 1
  62       30       58 1
  63       31       59 1
  64       32       60 1
  65       36       61 1
  66       37       62 1

@<TRIPOS>MOLECULE

  62   66
SMALL
USER_CHARGES
@<TRIPOS>ATOM
   1 C1          -6.6029     5.2435     1.1972 C.3          1    LIG   0.0000
   2 C2          -5.2978     4.4784     1.3446 C.3          1    LIG   0.0000
   3 O3          -4.7761     4.1801     0.0581 O.3          1    LIG   0.0000
   4 C4          -3.6113     3.4981     0.0471 C.ar         1    LIG   0.0000
   5 C5          -3.0144     3.1417     1.2520 C.ar         1    LIG   0.0000
   6 C6          -1.8149     2.4371     1.2315 C.ar         1    LIG   0.0000
   7 C7          -1.2279     2.0980     0.0165 C.ar         1    LIG   0.0000
   8 N8          -0.0198     1.3896     0.0067 N.pl3        1    LIG   0.0000
   9 C9           1.1574     2.0939     0.0066 C.2          1    LIG   0.0000
  10 O10          1.1363     3.4445     0.0158 O.3          1    LIG  -1.0000
  11 C11          2.3691     1.4501    -0.0037 C.2          1    LIG   0.0000
  12 C12          3.5761     2.2574    -0.0030 C.2          1    LIG   0.0000
  13 N13          4.6191     1.8218     0.5306 N.2          1    LIG   0.0000
  14 C14          5.8263     2.5271     0.5793 C.2          1    LIG   0.0000
  15 C15          6.0498     3.7643     0.0613 C.2          1    LIG   0.0000
  16 C16          7.3994     4.0539     0.3489 C.2          1    LIG   0.0000
  17 C17          8.1413     5.3288    -0.0199 C.3          1    LIG   0.0000
  18 N18          7.9028     3.0279     0.9946 N.2          1    LIG   0.0000
  19 N19          6.9878     2.1007     1.1458 N.pl3        1    LIG   0.0000
  20 C20          7.1787     0.8655     1.7886 C.ar         1    LIG   0.0000
  21 N21          6.1743    -0.0243     1.8940 N.ar         1    LIG   0.0000
  22 C22          6.3040    -1.2190     2.4988 C.ar         1    LIG   0.0000
  23 C23          5.1622    -2.2234     2.6141 C.3          1    LIG   0.0000
  24 C24          7.5463    -1.5397     3.0363 C.ar         1    LIG   0.0000
  25 C25          8.6003    -0.6370     2.9388 C.ar         1    LIG   0.0000
  26 C26          9.9524    -1.0088     3.5360 C.3          1    LIG   0.0000
  27 N27          8.3714     0.5319     2.3164 N.ar         1    LIG   0.0000
  28 C28          2.4027     0.0265    -0.0143 C.ar         1    LIG   0.0000
  29 C29          3.6040    -0.6795    -0.0254 C.ar         1    LIG   0.0000
  30 C30          3.6498    -2.0694    -0.0341 C.ar         1    LIG   0.0000
  31 C31          2.4545    -2.7804    -0.0316 C.ar         1    LIG   0.0000
  32 C32          1.2520    -2.0817    -0.0209 C.ar         1    LIG   0.0000
  33 C33          1.2069    -0.6888    -0.0127 C.ar         1    LIG   0.0000
  34 C34         -0.0289     0.0173    -0.0024 C.2          1    LIG   0.0000
  35 O35         -1.1072    -0.5600    -0.0015 O.2          1    LIG   0.0000
  36 C36         -1.8325     2.4587    -1.1828 C.ar         1    LIG   0.0000
  37 C37         -3.0316     3.1629    -1.1723 C.ar         1    LIG   0.0000
  38 H           -6.9704     5.4535     2.1032 H            1    LIG   0.0000
  39 H           -6.4360     6.0947     0.6997 H            1    LIG   0.0000
  40 H           -7.2611     4.6855     0.6917 H            1    LIG   0.0000
  41 H           -4.6396     5.0363     1.8501 H            1    LIG   0.0000
  42 H           -5.4648     3.6271     1.8422 H            1    LIG   0.0000
  43 H           -3.4418     3.3888     2.1216 H            1    LIG   0.0000
  44 H           -1.3746     2.1744     2.0901 H            1    LIG   0.0000
  45 H            3.5728     3.1620    -0.4293 H            1    LIG   0.0000
  46 H            5.3952     4.3459    -0.4217 H            1    LIG   0.0000
  47 H            7.5231     5.9450    -0.5079 H            1    LIG   0.0000
  48 H            8.4695     5.7761     0.8121 H            1    LIG   0.0000
  49 H            8.9193     5.1039    -0.6065 H            1    LIG   0.0000
  50 H            5.4820    -3.0375     3.0989 H            1    LIG   0.0000
  51 H            4.4047    -1.8104     3.1197 H            1    LIG   0.0000
  52 H            4.8511    -2.4810     1.6993 H            1    LIG   0.0000
  53 H            7.6816    -2.4190     3.4929 H            1    LIG   0.0000
  54 H            9.8963    -1.9186     3.9472 H            1    LIG   0.0000
  55 H           10.6458    -1.0109     2.8154 H            1    LIG   0.0000
  56 H           10.2021    -0.3409     4.2370 H            1    LIG   0.0000
  57 H            4.4636    -0.1686    -0.0271 H            1    LIG   0.0000
  58 H            4.5270    -2.5493    -0.0421 H            1    LIG   0.0000
  59 H            2.4596    -3.7804    -0.0375 H            1    LIG   0.0000
  60 H            0.3935    -2.5944    -0.0191 H            1    LIG   0.0000
  61 H           -1.4052     2.2118    -2.0525 H            1    LIG   0.0000
  62 H           -3.4719     3.4253    -2.0309 H            1    LIG   0.0000
@<TRIPOS>BOND
   1        1        2 1
   2        2        3 1
   3        3        4 1
   4        4        5 ar
   5        5        6 ar
   6        6        7 ar
   7        7        8 1
   8        8        9 1
   9        9       10 1
  10        9       11 2
  11       11       12 1
  12       12       13 2
  13       13       14 1
  14       14       15 2
  15       15       16 1
  16       16       17 1
  17       16       18 2
  18       18       19 1
  19       19       14 1
  20       19       20 1
  21       20       21 ar
  22       21       22 ar
  23       22       23 1
  24       22       24 ar
  25       24       25 ar
  26       25       26 1
  27       25       27 ar
  28       27       20 ar
  29       11       28 1
  30       28       29 ar
  31       29       30 ar
  32       30       31 ar
  33       31       32 ar
  34       32       33 ar
  35       33       28 ar
  36       33       34 1
  37       34        8 1
  38       34       35 2
  39        7       36 ar
  40       36       37 ar
  41       37        4 ar
  42        1       38 1
  43        1       39 1
  44        1       40 1
  45        2       41 1
  46        2       42 1
  47        5       43 1
  48        6       44 1
  49       12       45 1
  50       15       46 1
  51       17       47 1
  52       17       48 1
  53       17       49 1
  54       23       50 1
  55       23       51 1
  56       23       52 1
  57       24       53 1
  58       26       54 1
  59       26       55 1
  60       26       56 1
  61       29       57 1
  62       30       58 1
  63       31       59 1
  64       32       60 1
  65       36       61 1
  66       37       62 1

@<TRIPOS>MOLECULE

  62   66
SMALL
USER_CHARGES
@<TRIPOS>ATOM
   1 C1          -6.6131     5.2620    -1.0467 C.3          1    LIG   0.0000
   2 C2          -5.3094     4.4996    -1.2186 C.3          1    LIG   0.0000
   3 O3          -4.7761     4.1801     0.0581 O.3          1    LIG   0.0000
   4 C4          -3.6113     3.4981     0.0471 C.ar         1    LIG   0.0000
   5 C5          -3.0144     3.1417     1.2520 C.ar         1    LIG   0.0000
   6 C6          -1.8149     2.4371     1.2315 C.ar         1    LIG   0.0000
   7 C7          -1.2279     2.0980     0.0165 C.ar         1    LIG   0.0000
   8 N8          -0.0198     1.3896     0.0067 N.pl3        1    LIG   0.0000
   9 C9           1.1574     2.0939     0.0066 C.2          1    LIG   0.0000
  10 O10          1.1363     3.4445     0.0158 O.3          1    LIG  -1.0000
  11 C11          2.3691     1.4501    -0.0037 C.2          1    LIG   0.0000
  12 C12          3.5761     2.2574    -0.0030 C.2          1    LIG   0.0000
  13 N13          4.6191     1.8218     0.5306 N.2          1    LIG   0.0000
  14 C14          5.8263     2.5271     0.5793 C.2          1    LIG   0.0000
  15 C15          6.0498     3.7643     0.0613 C.2          1    LIG   0.0000
  16 C16          7.3994     4.0539     0.3489 C.2          1    LIG   0.0000
  17 C17          8.1413     5.3288    -0.0199 C.3          1    LIG   0.0000
  18 N18          7.9028     3.0279     0.9946 N.2          1    LIG   0.0000
  19 N19          6.9878     2.1007     1.1458 N.pl3        1    LIG   0.0000
  20 C20          7.1787     0.8655     1.7886 C.ar         1    LIG   0.0000
  21 N21          8.3816     0.2614     1.7876 N.ar         1    LIG   0.0000
  22 C22          8.6173    -0.9197     2.3869 C.ar         1    LIG   0.0000
  23 C23          9.9830    -1.5986     2.3831 C.3          1    LIG   0.0000
  24 C24          7.5551    -1.5365     3.0398 C.ar         1    LIG   0.0000
  25 C25          6.3027    -0.9311     3.0558 C.ar         1    LIG   0.0000
  26 C26          5.1529    -1.6255     3.7762 C.3          1    LIG   0.0000
  27 N27          6.1667     0.2490     2.4274 N.ar         1    LIG   0.0000
  28 C28          2.4027     0.0265    -0.0143 C.ar         1    LIG   0.0000
  29 C29          3.6040    -0.6795    -0.0254 C.ar         1    LIG   0.0000
  30 C30          3.6498    -2.0694    -0.0341 C.ar         1    LIG   0.0000
  31 C31          2.4545    -2.7804    -0.0316 C.ar         1    LIG   0.0000
  32 C32          1.2520    -2.0817    -0.0209 C.ar         1    LIG   0.0000
  33 C33          1.2069    -0.6888    -0.0127 C.ar         1    LIG   0.0000
  34 C34         -0.0289     0.0173    -0.0024 C.2          1    LIG   0.0000
  35 O35         -1.1072    -0.5600    -0.0015 O.2          1    LIG   0.0000
  36 C36         -1.8325     2.4587    -1.1828 C.ar         1    LIG   0.0000
  37 C37         -3.0316     3.1629    -1.1723 C.ar         1    LIG   0.0000
  38 H           -6.9887     5.4870    -1.9458 H            1    LIG   0.0000
  39 H           -7.2667     4.6958    -0.5446 H            1    LIG   0.0000
  40 H           -6.4416     6.1049    -0.5367 H            1    LIG   0.0000
  41 H           -5.4810     3.6567    -1.7286 H            1    LIG   0.0000
  42 H           -4.6558     5.0659    -1.7207 H            1    LIG   0.0000
  43 H           -3.4418     3.3888     2.1216 H            1    LIG   0.0000
  44 H           -1.3746     2.1744     2.0901 H            1    LIG   0.0000
  45 H            3.5728     3.1620    -0.4293 H            1    LIG   0.0000
  46 H            5.3952     4.3459    -0.4217 H            1    LIG   0.0000
  47 H            7.5231     5.9450    -0.5079 H            1    LIG   0.0000
  48 H            8.4695     5.7761     0.8121 H            1    LIG   0.0000
  49 H            8.9193     5.1039    -0.6065 H            1    LIG   0.0000
  50 H            9.9276    -2.4615     2.8854 H            1    LIG   0.0000
  51 H           10.2629    -1.7792     1.4402 H            1    LIG   0.0000
  52 H           10.6539    -1.0003     2.8213 H            1    LIG   0.0000
  53 H            7.6918    -2.4150     3.4976 H            1    LIG   0.0000
  54 H            5.4772    -2.4855     4.1701 H            1    LIG   0.0000
  55 H            4.8103    -1.0332     4.5055 H            1    LIG   0.0000
  56 H            4.4169    -1.8132     3.1258 H            1    LIG   0.0000
  57 H            4.4636    -0.1686    -0.0271 H            1    LIG   0.0000
  58 H            4.5270    -2.5493    -0.0421 H            1    LIG   0.0000
  59 H            2.4596    -3.7804    -0.0375 H            1    LIG   0.0000
  60 H            0.3935    -2.5944    -0.0191 H            1    LIG   0.0000
  61 H           -1.4052     2.2118    -2.0525 H            1    LIG   0.0000
  62 H           -3.4719     3.4253    -2.0309 H            1    LIG   0.0000
@<TRIPOS>BOND
   1        1        2 1
   2        2        3 1
   3        3        4 1
   4        4        5 ar
   5        5        6 ar
   6        6        7 ar
   7        7        8 1
   8        8        9 1
   9        9       10 1
  10        9       11 2
  11       11       12 1
  12       12       13 2
  13       13       14 1
  14       14       15 2
  15       15       16 1
  16       16       17 1
  17       16       18 2
  18       18       19 1
  19       19       14 1
  20       19       20 1
  21       20       21 ar
  22       21       22 ar
  23       22       23 1
  24       22       24 ar
  25       24       25 ar
  26       25       26 1
  27       25       27 ar
  28       27       20 ar
  29       11       28 1
  30       28       29 ar
  31       29       30 ar
  32       30       31 ar
  33       31       32 ar
  34       32       33 ar
  35       33       28 ar
  36       33       34 1
  37       34        8 1
  38       34       35 2
  39        7       36 ar
  40       36       37 ar
  41       37        4 ar
  42        1       38 1
  43        1       39 1
  44        1       40 1
  45        2       41 1
  46        2       42 1
  47        5       43 1
  48        6       44 1
  49       12       45 1
  50       15       46 1
  51       17       47 1
  52       17       48 1
  53       17       49 1
  54       23       50 1
  55       23       51 1
  56       23       52 1
  57       24       53 1
  58       26       54 1
  59       26       55 1
  60       26       56 1
  61       29       57 1
  62       30       58 1
  63       31       59 1
  64       32       60 1
  65       36       61 1
  66       37       62 1

@<TRIPOS>MOLECULE

  62   66
SMALL
USER_CHARGES
@<TRIPOS>ATOM
   1 C1          -6.6029     5.2435     1.1972 C.3          1    LIG   0.0000
   2 C2          -5.2978     4.4784     1.3446 C.3          1    LIG   0.0000
   3 O3          -4.7761     4.1801     0.0581 O.3          1    LIG   0.0000
   4 C4          -3.6113     3.4981     0.0471 C.ar         1    LIG   0.0000
   5 C5          -3.0144     3.1417     1.2520 C.ar         1    LIG   0.0000
   6 C6          -1.8149     2.4371     1.2315 C.ar         1    LIG   0.0000
   7 C7          -1.2279     2.0980     0.0165 C.ar         1    LIG   0.0000
   8 N8          -0.0198     1.3896     0.0067 N.pl3        1    LIG   0.0000
   9 C9           1.1574     2.0939     0.0066 C.2          1    LIG   0.0000
  10 O10          1.1363     3.4445     0.0158 O.3          1    LIG  -1.0000
  11 C11          2.3691     1.4501    -0.0037 C.2          1    LIG   0.0000
  12 C12          3.5761     2.2574    -0.0030 C.2          1    LIG   0.0000
  13 N13          4.6191     1.8218     0.5306 N.2          1    LIG   0.0000
  14 C14          5.8263     2.5271     0.5793 C.2          1    LIG   0.0000
  15 C15          6.0498     3.7643     0.0613 C.2          1    LIG   0.0000
  16 C16          7.3994     4.0539     0.3489 C.2          1    LIG   0.0000
  17 C17          8.1413     5.3288    -0.0199 C.3          1    LIG   0.0000
  18 N18          7.9028     3.0279     0.9946 N.2          1    LIG   0.0000
  19 N19          6.9878     2.1007     1.1458 N.pl3        1    LIG   0.0000
  20 C20          7.1787     0.8655     1.7886 C.ar         1    LIG   0.0000
  21 N21          8.3816     0.2614     1.7876 N.ar         1    LIG   0.0000
  22 C22          8.6173    -0.9197     2.3869 C.ar         1    LIG   0.0000
  23 C23          9.9830    -1.5986     2.3831 C.3          1    LIG   0.0000
  24 C24          7.5551    -1.5365     3.0398 C.ar         1    LIG   0.0000
  25 C25          6.3027    -0.9311     3.0558 C.ar         1    LIG   0.0000
  26 C26          5.1529    -1.6255     3.7762 C.3          1    LIG   0.0000
  27 N27          6.1667     0.2490     2.4274 N.ar         1    LIG   0.0000
  28 C28          2.4027     0.0265    -0.0143 C.ar         1    LIG   0.0000
  29 C29          3.6040    -0.6795    -0.0254 C.ar         1    LIG   0.0000
  30 C30          3.6498    -2.0694    -0.0341 C.ar         1    LIG   0.0000
  31 C31          2.4545    -2.7804    -0.0316 C.ar         1    LIG   0.0000
  32 C32          1.2520    -2.0817    -0.0209 C.ar         1    LIG   0.0000
  33 C33          1.2069    -0.6888    -0.0127 C.ar         1    LIG   0.0000
  34 C34         -0.0289     0.0173    -0.0024 C.2          1    LIG   0.0000
  35 O35         -1.1072    -0.5600    -0.0015 O.2          1    LIG   0.0000
  36 C36         -1.8325     2.4587    -1.1828 C.ar         1    LIG   0.0000
  37 C37         -3.0316     3.1629    -1.1723 C.ar         1    LIG   0.0000
  38 H           -6.9704     5.4535     2.1032 H            1    LIG   0.0000
  39 H           -6.4360     6.0947     0.6997 H            1    LIG   0.0000
  40 H           -7.2611     4.6855     0.6917 H            1    LIG   0.0000
  41 H           -4.6396     5.0363     1.8501 H            1    LIG   0.0000
  42 H           -5.4648     3.6271     1.8422 H            1    LIG   0.0000
  43 H           -3.4418     3.3888     2.1216 H            1    LIG   0.0000
  44 H           -1.3746     2.1744     2.0901 H            1    LIG   0.0000
  45 H            3.5728     3.1620    -0.4293 H            1    LIG   0.0000
  46 H            5.3952     4.3459    -0.4217 H            1    LIG   0.0000
  47 H            7.5231     5.9450    -0.5079 H            1    LIG   0.0000
  48 H            8.4695     5.7761     0.8121 H            1    LIG   0.0000
  49 H            8.9193     5.1039    -0.6065 H            1    LIG   0.0000
  50 H            9.9276    -2.4615     2.8854 H            1    LIG   0.0000
  51 H           10.2629    -1.7792     1.4402 H            1    LIG   0.0000
  52 H           10.6539    -1.0003     2.8213 H            1    LIG   0.0000
  53 H            7.6918    -2.4150     3.4976 H            1    LIG   0.0000
  54 H            5.4772    -2.4855     4.1701 H            1    LIG   0.0000
  55 H            4.8103    -1.0332     4.5055 H            1    LIG   0.0000
  56 H            4.4169    -1.8132     3.1258 H            1    LIG   0.0000
  57 H            4.4636    -0.1686    -0.0271 H            1    LIG   0.0000
  58 H            4.5270    -2.5493    -0.0421 H            1    LIG   0.0000
  59 H            2.4596    -3.7804    -0.0375 H            1    LIG   0.0000
  60 H            0.3935    -2.5944    -0.0191 H            1    LIG   0.0000
  61 H           -1.4052     2.2118    -2.0525 H            1    LIG   0.0000
  62 H           -3.4719     3.4253    -2.0309 H            1    LIG   0.0000
@<TRIPOS>BOND
   1        1        2 1
   2        2        3 1
   3        3        4 1
   4        4        5 ar
   5        5        6 ar
   6        6        7 ar
   7        7        8 1
   8        8        9 1
   9        9       10 1
  10        9       11 2
  11       11       12 1
  12       12       13 2
  13       13       14 1
  14       14       15 2
  15       15       16 1
  16       16       17 1
  17       16       18 2
  18       18       19 1
  19       19       14 1
  20       19       20 1
  21       20       21 ar
  22       21       22 ar
  23       22       23 1
  24       22       24 ar
  25       24       25 ar
  26       25       26 1
  27       25       27 ar
  28       27       20 ar
  29       11       28 1
  30       28       29 ar
  31       29       30 ar
  32       30       31 ar
  33       31       32 ar
  34       32       33 ar
  35       33       28 ar
  36       33       34 1
  37       34        8 1
  38       34       35 2
  39        7       36 ar
  40       36       37 ar
  41       37        4 ar
  42        1       38 1
  43        1       39 1
  44        1       40 1
  45        2       41 1
  46        2       42 1
  47        5       43 1
  48        6       44 1
  49       12       45 1
  50       15       46 1
  51       17       47 1
  52       17       48 1
  53       17       49 1
  54       23       50 1
  55       23       51 1
  56       23       52 1
  57       24       53 1
  58       26       54 1
  59       26       55 1
  60       26       56 1
  61       29       57 1
  62       30       58 1
  63       31       59 1
  64       32       60 1
  65       36       61 1
  66       37       62 1

@<TRIPOS>MOLECULE

  62   66
SMALL
USER_CHARGES
@<TRIPOS>ATOM
   1 C1          -6.6131     5.2620    -1.0467 C.3          1    LIG   0.0000
   2 C2          -5.3094     4.4996    -1.2186 C.3          1    LIG   0.0000
   3 O3          -4.7761     4.1801     0.0581 O.3          1    LIG   0.0000
   4 C4          -3.6113     3.4981     0.0471 C.ar         1    LIG   0.0000
   5 C5          -3.0144     3.1417     1.2520 C.ar         1    LIG   0.0000
   6 C6          -1.8149     2.4371     1.2315 C.ar         1    LIG   0.0000
   7 C7          -1.2279     2.0980     0.0165 C.ar         1    LIG   0.0000
   8 N8          -0.0198     1.3896     0.0067 N.pl3        1    LIG   0.0000
   9 C9           1.1574     2.0939     0.0066 C.2          1    LIG   0.0000
  10 O10          1.1363     3.4445     0.0158 O.3          1    LIG  -1.0000
  11 C11          2.3691     1.4501    -0.0037 C.2          1    LIG   0.0000
  12 C12          3.5761     2.2574    -0.0030 C.2          1    LIG   0.0000
  13 N13          4.6191     1.8218     0.5306 N.2          1    LIG   0.0000
  14 C14          5.8263     2.5271     0.5793 C.2          1    LIG   0.0000
  15 C15          6.0498     3.7643     0.0613 C.2          1    LIG   0.0000
  16 C16          7.3994     4.0539     0.3489 C.2          1    LIG   0.0000
  17 C17          8.1413     5.3288    -0.0199 C.3          1    LIG   0.0000
  18 N18          7.9028     3.0279     0.9946 N.2          1    LIG   0.0000
  19 N19          6.9878     2.1007     1.1458 N.pl3        1    LIG   0.0000
  20 C20          7.1787     0.8655     1.7886 C.ar         1    LIG   0.0000
  21 N21          7.5872    -0.2179     1.1023 N.ar         1    LIG   0.0000
  22 C22          7.7847    -1.4221     1.6688 C.ar         1    LIG   0.0000
  23 C23          8.2487    -2.6458     0.8859 C.3          1    LIG   0.0000
  24 C24          7.5535    -1.5390     3.0356 C.ar         1    LIG   0.0000
  25 C25          7.1321    -0.4330     3.7667 C.ar         1    LIG   0.0000
  26 C26          6.8837    -0.5843     5.2628 C.3          1    LIG   0.0000
  27 N27          6.9620     0.7271     3.1100 N.ar         1    LIG   0.0000
  28 C28          2.4027     0.0265    -0.0143 C.ar         1    LIG   0.0000
  29 C29          3.6040    -0.6795    -0.0254 C.ar         1    LIG   0.0000
  30 C30          3.6498    -2.0694    -0.0341 C.ar         1    LIG   0.0000
  31 C31          2.4545    -2.7804    -0.0316 C.ar         1    LIG   0.0000
  32 C32          1.2520    -2.0817    -0.0209 C.ar         1    LIG   0.0000
  33 C33          1.2069    -0.6888    -0.0127 C.ar         1    LIG   0.0000
  34 C34         -0.0289     0.0173    -0.0024 C.2          1    LIG   0.0000
  35 O35         -1.1072    -0.5600    -0.0015 O.2          1    LIG   0.0000
  36 C36         -1.8325     2.4587    -1.1828 C.ar         1    LIG   0.0000
  37 C37         -3.0316     3.1629    -1.1723 C.ar         1    LIG   0.0000
  38 H           -6.9887     5.4870    -1.9458 H            1    LIG   0.0000
  39 H           -7.2667     4.6958    -0.5446 H            1    LIG   0.0000
  40 H           -6.4416     6.1049    -0.5367 H            1    LIG   0.0000
  41 H           -5.4810     3.6567    -1.7286 H            1    LIG   0.0000
  42 H           -4.6558     5.0659    -1.7207 H            1    LIG   0.0000
  43 H           -3.4418     3.3888     2.1216 H            1    LIG   0.0000
  44 H           -1.3746     2.1744     2.0901 H            1    LIG   0.0000
  45 H            3.5728     3.1620    -0.4293 H            1    LIG   0.0000
  46 H            5.3952     4.3459    -0.4217 H            1    LIG   0.0000
  47 H            7.5231     5.9450    -0.5079 H            1    LIG   0.0000
  48 H            8.4695     5.7761     0.8121 H            1    LIG   0.0000
  49 H            8.9193     5.1039    -0.6065 H            1    LIG   0.0000
  50 H            8.3282    -3.4272     1.5049 H            1    LIG   0.0000
  51 H            7.5836    -2.8548     0.1690 H            1    LIG   0.0000
  52 H            9.1387    -2.4579     0.4704 H            1    LIG   0.0000
  53 H            7.6903    -2.4179     3.4924 H            1    LIG   0.0000
  54 H            7.0715    -1.5272     5.5382 H            1    LIG   0.0000
  55 H            7.4861     0.0359     5.7652 H            1    LIG   0.0000
  56 H            5.9305    -0.3611     5.4668 H            1    LIG   0.0000
  57 H            4.4636    -0.1686    -0.0271 H            1    LIG   0.0000
  58 H            4.5270    -2.5493    -0.0421 H            1    LIG   0.0000
  59 H            2.4596    -3.7804    -0.0375 H            1    LIG   0.0000
  60 H            0.3935    -2.5944    -0.0191 H            1    LIG   0.0000
  61 H           -1.4052     2.2118    -2.0525 H            1    LIG   0.0000
  62 H           -3.4719     3.4253    -2.0309 H            1    LIG   0.0000
@<TRIPOS>BOND
   1        1        2 1
   2        2        3 1
   3        3        4 1
   4        4        5 ar
   5        5        6 ar
   6        6        7 ar
   7        7        8 1
   8        8        9 1
   9        9       10 1
  10        9       11 2
  11       11       12 1
  12       12       13 2
  13       13       14 1
  14       14       15 2
  15       15       16 1
  16       16       17 1
  17       16       18 2
  18       18       19 1
  19       19       14 1
  20       19       20 1
  21       20       21 ar
  22       21       22 ar
  23       22       23 1
  24       22       24 ar
  25       24       25 ar
  26       25       26 1
  27       25       27 ar
  28       27       20 ar
  29       11       28 1
  30       28       29 ar
  31       29       30 ar
  32       30       31 ar
  33       31       32 ar
  34       32       33 ar
  35       33       28 ar
  36       33       34 1
  37       34        8 1
  38       34       35 2
  39        7       36 ar
  40       36       37 ar
  41       37        4 ar
  42        1       38 1
  43        1       39 1
  44        1       40 1
  45        2       41 1
  46        2       42 1
  47        5       43 1
  48        6       44 1
  49       12       45 1
  50       15       46 1
  51       17       47 1
  52       17       48 1
  53       17       49 1
  54       23       50 1
  55       23       51 1
  56       23       52 1
  57       24       53 1
  58       26       54 1
  59       26       55 1
  60       26       56 1
  61       29       57 1
  62       30       58 1
  63       31       59 1
  64       32       60 1
  65       36       61 1
  66       37       62 1

@<TRIPOS>MOLECULE

  62   66
SMALL
USER_CHARGES
@<TRIPOS>ATOM
   1 C1          -6.6029     5.2435     1.1972 C.3          1    LIG   0.0000
   2 C2          -5.2978     4.4784     1.3446 C.3          1    LIG   0.0000
   3 O3          -4.7761     4.1801     0.0581 O.3          1    LIG   0.0000
   4 C4          -3.6113     3.4981     0.0471 C.ar         1    LIG   0.0000
   5 C5          -3.0144     3.1417     1.2520 C.ar         1    LIG   0.0000
   6 C6          -1.8149     2.4371     1.2315 C.ar         1    LIG   0.0000
   7 C7          -1.2279     2.0980     0.0165 C.ar         1    LIG   0.0000
   8 N8          -0.0198     1.3896     0.0067 N.pl3        1    LIG   0.0000
   9 C9           1.1574     2.0939     0.0066 C.2          1    LIG   0.0000
  10 O10          1.1363     3.4445     0.0158 O.3          1    LIG  -1.0000
  11 C11          2.3691     1.4501    -0.0037 C.2          1    LIG   0.0000
  12 C12          3.5761     2.2574    -0.0030 C.2          1    LIG   0.0000
  13 N13          4.6191     1.8218     0.5306 N.2          1    LIG   0.0000
  14 C14          5.8263     2.5271     0.5793 C.2          1    LIG   0.0000
  15 C15          6.0498     3.7643     0.0613 C.2          1    LIG   0.0000
  16 C16          7.3994     4.0539     0.3489 C.2          1    LIG   0.0000
  17 C17          8.1413     5.3288    -0.0199 C.3          1    LIG   0.0000
  18 N18          7.9028     3.0279     0.9946 N.2          1    LIG   0.0000
  19 N19          6.9878     2.1007     1.1458 N.pl3        1    LIG   0.0000
  20 C20          7.1787     0.8655     1.7886 C.ar         1    LIG   0.0000
  21 N21          7.5872    -0.2179     1.1023 N.ar         1    LIG   0.0000
  22 C22          7.7847    -1.4221     1.6688 C.ar         1    LIG   0.0000
  23 C23          8.2487    -2.6458     0.8859 C.3          1    LIG   0.0000
  24 C24          7.5535    -1.5390     3.0356 C.ar         1    LIG   0.0000
  25 C25          7.1321    -0.4330     3.7667 C.ar         1    LIG   0.0000
  26 C26          6.8837    -0.5843     5.2628 C.3          1    LIG   0.0000
  27 N27          6.9620     0.7271     3.1100 N.ar         1    LIG   0.0000
  28 C28          2.4027     0.0265    -0.0143 C.ar         1    LIG   0.0000
  29 C29          3.6040    -0.6795    -0.0254 C.ar         1    LIG   0.0000
  30 C30          3.6498    -2.0694    -0.0341 C.ar         1    LIG   0.0000
  31 C31          2.4545    -2.7804    -0.0316 C.ar         1    LIG   0.0000
  32 C32          1.2520    -2.0817    -0.0209 C.ar         1    LIG   0.0000
  33 C33          1.2069    -0.6888    -0.0127 C.ar         1    LIG   0.0000
  34 C34         -0.0289     0.0173    -0.0024 C.2          1    LIG   0.0000
  35 O35         -1.1072    -0.5600    -0.0015 O.2          1    LIG   0.0000
  36 C36         -1.8325     2.4587    -1.1828 C.ar         1    LIG   0.0000
  37 C37         -3.0316     3.1629    -1.1723 C.ar         1    LIG   0.0000
  38 H           -6.9704     5.4535     2.1032 H            1    LIG   0.0000
  39 H           -6.4360     6.0947     0.6997 H            1    LIG   0.0000
  40 H           -7.2611     4.6855     0.6917 H            1    LIG   0.0000
  41 H           -4.6396     5.0363     1.8501 H            1    LIG   0.0000
  42 H           -5.4648     3.6271     1.8422 H            1    LIG   0.0000
  43 H           -3.4418     3.3888     2.1216 H            1    LIG   0.0000
  44 H           -1.3746     2.1744     2.0901 H            1    LIG   0.0000
  45 H            3.5728     3.1620    -0.4293 H            1    LIG   0.0000
  46 H            5.3952     4.3459    -0.4217 H            1    LIG   0.0000
  47 H            7.5231     5.9450    -0.5079 H            1    LIG   0.0000
  48 H            8.4695     5.7761     0.8121 H            1    LIG   0.0000
  49 H            8.9193     5.1039    -0.6065 H            1    LIG   0.0000
  50 H            8.3282    -3.4272     1.5049 H            1    LIG   0.0000
  51 H            7.5836    -2.8548     0.1690 H            1    LIG   0.0000
  52 H            9.1387    -2.4579     0.4704 H            1    LIG   0.0000
  53 H            7.6903    -2.4179     3.4924 H            1    LIG   0.0000
  54 H            7.0715    -1.5272     5.5382 H            1    LIG   0.0000
  55 H            7.4861     0.0359     5.7652 H            1    LIG   0.0000
  56 H            5.9305    -0.3611     5.4668 H            1    LIG   0.0000
  57 H            4.4636    -0.1686    -0.0271 H            1    LIG   0.0000
  58 H            4.5270    -2.5493    -0.0421 H            1    LIG   0.0000
  59 H            2.4596    -3.7804    -0.0375 H            1    LIG   0.0000
  60 H            0.3935    -2.5944    -0.0191 H            1    LIG   0.0000
  61 H           -1.4052     2.2118    -2.0525 H            1    LIG   0.0000
  62 H           -3.4719     3.4253    -2.0309 H            1    LIG   0.0000
@<TRIPOS>BOND
   1        1        2 1
   2        2        3 1
   3        3        4 1
   4        4        5 ar
   5        5        6 ar
   6        6        7 ar
   7        7        8 1
   8        8        9 1
   9        9       10 1
  10        9       11 2
  11       11       12 1
  12       12       13 2
  13       13       14 1
  14       14       15 2
  15       15       16 1
  16       16       17 1
  17       16       18 2
  18       18       19 1
  19       19       14 1
  20       19       20 1
  21       20       21 ar
  22       21       22 ar
  23       22       23 1
  24       22       24 ar
  25       24       25 ar
  26       25       26 1
  27       25       27 ar
  28       27       20 ar
  29       11       28 1
  30       28       29 ar
  31       29       30 ar
  32       30       31 ar
  33       31       32 ar
  34       32       33 ar
  35       33       28 ar
  36       33       34 1
  37       34        8 1
  38       34       35 2
  39        7       36 ar
  40       36       37 ar
  41       37        4 ar
  42        1       38 1
  43        1       39 1
  44        1       40 1
  45        2       41 1
  46        2       42 1
  47        5       43 1
  48        6       44 1
  49       12       45 1
  50       15       46 1
  51       17       47 1
  52       17       48 1
  53       17       49 1
  54       23       50 1
  55       23       51 1
  56       23       52 1
  57       24       53 1
  58       26       54 1
  59       26       55 1
  60       26       56 1
  61       29       57 1
  62       30       58 1
  63       31       59 1
  64       32       60 1
  65       36       61 1
  66       37       62 1

@<TRIPOS>MOLECULE

  62   66
SMALL
USER_CHARGES
@<TRIPOS>ATOM
   1 C1          -6.6131     5.2620    -1.0467 C.3          1    LIG   0.0000
   2 C2          -5.3094     4.4996    -1.2186 C.3          1    LIG   0.0000
   3 O3          -4.7761     4.1801     0.0581 O.3          1    LIG   0.0000
   4 C4          -3.6113     3.4981     0.0471 C.ar         1    LIG   0.0000
   5 C5          -3.0144     3.1417     1.2520 C.ar         1    LIG   0.0000
   6 C6          -1.8149     2.4371     1.2315 C.ar         1    LIG   0.0000
   7 C7          -1.2279     2.0980     0.0165 C.ar         1    LIG   0.0000
   8 N8          -0.0198     1.3896     0.0067 N.pl3        1    LIG   0.0000
   9 C9           1.1574     2.0939     0.0066 C.2          1    LIG   0.0000
  10 O10          1.1363     3.4445     0.0158 O.3          1    LIG  -1.0000
  11 C11          2.3691     1.4501    -0.0037 C.2          1    LIG   0.0000
  12 C12          3.5761     2.2574    -0.0030 C.2          1    LIG   0.0000
  13 N13          4.6191     1.8218     0.5306 N.2          1    LIG   0.0000
  14 C14          5.8263     2.5271     0.5793 C.2          1    LIG   0.0000
  15 C15          6.9810     2.0952     1.1529 C.2          1    LIG   0.0000
  16 C16          7.9105     3.1373     0.9573 C.2          1    LIG   0.0000
  17 C17          9.3605     3.1431     1.4146 C.3          1    LIG   0.0000
  18 N18          7.3028     4.1023     0.3073 N.2          1    LIG   0.0000
  19 N19          6.0575     3.7673     0.0690 N.pl3        1    LIG   0.0000
  20 C20          5.1148     4.5631    -0.6041 C.ar         1    LIG   0.0000
  21 N21          4.3306     5.4271     0.0670 N.ar         1    LIG   0.0000
  22 C22          3.4135     6.2108    -0.5286 C.ar         1    LIG   0.0000
  23 C23          2.5286     7.1886     0.2374 C.3          1    LIG   0.0000
  24 C24          3.2809     6.1151    -1.9100 C.ar         1    LIG   0.0000
  25 C25          4.0810     5.2304    -2.6259 C.ar         1    LIG   0.0000
  26 C26          3.9177     5.1412    -4.1386 C.3          1    LIG   0.0000
  27 N27          4.9677     4.4890    -1.9403 N.ar         1    LIG   0.0000
  28 C28          2.4027     0.0265    -0.0143 C.ar         1    LIG   0.0000
  29 C29          3.6040    -0.6795    -0.0254 C.ar         1    LIG   0.0000
  30 C30          3.6498    -2.0694    -0.0341 C.ar         1    LIG   0.0000
  31 C31          2.4545    -2.7804    -0.0316 C.ar         1    LIG   0.0000
  32 C32          1.2520    -2.0817    -0.0209 C.ar         1    LIG   0.0000
  33 C33          1.2069    -0.6888    -0.0127 C.ar         1    LIG   0.0000
  34 C34         -0.0289     0.0173    -0.0024 C.2          1    LIG   0.0000
  35 O35         -1.1072    -0.5600    -0.0015 O.2          1    LIG   0.0000
  36 C36         -1.8325     2.4587    -1.1828 C.ar         1    LIG   0.0000
  37 C37         -3.0316     3.1629    -1.1723 C.ar         1    LIG   0.0000
  38 H           -6.9887     5.4870    -1.9458 H            1    LIG   0.0000
  39 H           -7.2667     4.6958    -0.5446 H            1    LIG   0.0000
  40 H           -6.4416     6.1049    -0.5367 H            1    LIG   0.0000
  41 H           -5.4810     3.6567    -1.7286 H            1    LIG   0.0000
  42 H           -4.6558     5.0659    -1.7207 H            1    LIG   0.0000
  43 H           -3.4418     3.3888     2.1216 H            1    LIG   0.0000
  44 H           -1.3746     2.1744     2.0901 H            1    LIG   0.0000
  45 H            3.5728     3.1620    -0.4293 H            1    LIG   0.0000
  46 H            7.1379     1.2227     1.6158 H            1    LIG   0.0000
  47 H            9.5649     2.2851     1.8858 H            1    LIG   0.0000
  48 H            9.9603     3.2381     0.6200 H            1    LIG   0.0000
  49 H            9.5101     3.9100     2.0386 H            1    LIG   0.0000
  50 H            1.9248     7.6636    -0.4028 H            1    LIG   0.0000
  51 H            1.9783     6.6875     0.9052 H            1    LIG   0.0000
  52 H            3.1025     7.8561     0.7119 H            1    LIG   0.0000
  53 H            2.6104     6.6822    -2.3885 H            1    LIG   0.0000
  54 H            3.2058     5.7778    -4.4352 H            1    LIG   0.0000
  55 H            4.7823     5.3782    -4.5818 H            1    LIG   0.0000
  56 H            3.6580     4.2092    -4.3915 H            1    LIG   0.0000
  57 H            4.4636    -0.1686    -0.0271 H            1    LIG   0.0000
  58 H            4.5270    -2.5493    -0.0421 H            1    LIG   0.0000
  59 H            2.4596    -3.7804    -0.0375 H            1    LIG   0.0000
  60 H            0.3935    -2.5944    -0.0191 H            1    LIG   0.0000
  61 H           -1.4052     2.2118    -2.0525 H            1    LIG   0.0000
  62 H           -3.4719     3.4253    -2.0309 H            1    LIG   0.0000
@<TRIPOS>BOND
   1        1        2 1
   2        2        3 1
   3        3        4 1
   4        4        5 ar
   5        5        6 ar
   6        6        7 ar
   7        7        8 1
   8        8        9 1
   9        9       10 1
  10        9       11 2
  11       11       12 1
  12       12       13 2
  13       13       14 1
  14       14       15 2
  15       15       16 1
  16       16       17 1
  17       16       18 2
  18       18       19 1
  19       19       14 1
  20       19       20 1
  21       20       21 ar
  22       21       22 ar
  23       22       23 1
  24       22       24 ar
  25       24       25 ar
  26       25       26 1
  27       25       27 ar
  28       27       20 ar
  29       11       28 1
  30       28       29 ar
  31       29       30 ar
  32       30       31 ar
  33       31       32 ar
  34       32       33 ar
  35       33       28 ar
  36       33       34 1
  37       34        8 1
  38       34       35 2
  39        7       36 ar
  40       36       37 ar
  41       37        4 ar
  42        1       38 1
  43        1       39 1
  44        1       40 1
  45        2       41 1
  46        2       42 1
  47        5       43 1
  48        6       44 1
  49       12       45 1
  50       15       46 1
  51       17       47 1
  52       17       48 1
  53       17       49 1
  54       23       50 1
  55       23       51 1
  56       23       52 1
  57       24       53 1
  58       26       54 1
  59       26       55 1
  60       26       56 1
  61       29       57 1
  62       30       58 1
  63       31       59 1
  64       32       60 1
  65       36       61 1
  66       37       62 1

@<TRIPOS>MOLECULE

  62   66
SMALL
USER_CHARGES
@<TRIPOS>ATOM
   1 C1          -6.6029     5.2435     1.1972 C.3          1    LIG   0.0000
   2 C2          -5.2978     4.4784     1.3446 C.3          1    LIG   0.0000
   3 O3          -4.7761     4.1801     0.0581 O.3          1    LIG   0.0000
   4 C4          -3.6113     3.4981     0.0471 C.ar         1    LIG   0.0000
   5 C5          -3.0144     3.1417     1.2520 C.ar         1    LIG   0.0000
   6 C6          -1.8149     2.4371     1.2315 C.ar         1    LIG   0.0000
   7 C7          -1.2279     2.0980     0.0165 C.ar         1    LIG   0.0000
   8 N8          -0.0198     1.3896     0.0067 N.pl3        1    LIG   0.0000
   9 C9           1.1574     2.0939     0.0066 C.2          1    LIG   0.0000
  10 O10          1.1363     3.4445     0.0158 O.3          1    LIG  -1.0000
  11 C11          2.3691     1.4501    -0.0037 C.2          1    LIG   0.0000
  12 C12          3.5761     2.2574    -0.0030 C.2          1    LIG   0.0000
  13 N13          4.6191     1.8218     0.5306 N.2          1    LIG   0.0000
  14 C14          5.8263     2.5271     0.5793 C.2          1    LIG   0.0000
  15 C15          6.9810     2.0952     1.1529 C.2          1    LIG   0.0000
  16 C16          7.9105     3.1373     0.9573 C.2          1    LIG   0.0000
  17 C17          9.3605     3.1431     1.4146 C.3          1    LIG   0.0000
  18 N18          7.3028     4.1023     0.3073 N.2          1    LIG   0.0000
  19 N19          6.0575     3.7673     0.0690 N.pl3        1    LIG   0.0000
  20 C20          5.1148     4.5631    -0.6041 C.ar         1    LIG   0.0000
  21 N21          4.3306     5.4271     0.0670 N.ar         1    LIG   0.0000
  22 C22          3.4135     6.2108    -0.5286 C.ar         1    LIG   0.0000
  23 C23          2.5286     7.1886     0.2374 C.3          1    LIG   0.0000
  24 C24          3.2809     6.1151    -1.9100 C.ar         1    LIG   0.0000
  25 C25          4.0810     5.2304    -2.6259 C.ar         1    LIG   0.0000
  26 C26          3.9177     5.1412    -4.1386 C.3          1    LIG   0.0000
  27 N27          4.9677     4.4890    -1.9403 N.ar         1    LIG   0.0000
  28 C28          2.4027     0.0265    -0.0143 C.ar         1    LIG   0.0000
  29 C29          3.6040    -0.6795    -0.0254 C.ar         1    LIG   0.0000
  30 C30          3.6498    -2.0694    -0.0341 C.ar         1    LIG   0.0000
  31 C31          2.4545    -2.7804    -0.0316 C.ar         1    LIG   0.0000
  32 C32          1.2520    -2.0817    -0.0209 C.ar         1    LIG   0.0000
  33 C33          1.2069    -0.6888    -0.0127 C.ar         1    LIG   0.0000
  34 C34         -0.0289     0.0173    -0.0024 C.2          1    LIG   0.0000
  35 O35         -1.1072    -0.5600    -0.0015 O.2          1    LIG   0.0000
  36 C36         -1.8325     2.4587    -1.1828 C.ar         1    LIG   0.0000
  37 C37         -3.0316     3.1629    -1.1723 C.ar         1    LIG   0.0000
  38 H           -6.9704     5.4535     2.1032 H            1    LIG   0.0000
  39 H           -6.4360     6.0947     0.6997 H            1    LIG   0.0000
  40 H           -7.2611     4.6855     0.6917 H            1    LIG   0.0000
  41 H           -4.6396     5.0363     1.8501 H            1    LIG   0.0000
  42 H           -5.4648     3.6271     1.8422 H            1    LIG   0.0000
  43 H           -3.4418     3.3888     2.1216 H            1    LIG   0.0000
  44 H           -1.3746     2.1744     2.0901 H            1    LIG   0.0000
  45 H            3.5728     3.1620    -0.4293 H            1    LIG   0.0000
  46 H            7.1379     1.2227     1.6158 H            1    LIG   0.0000
  47 H            9.5649     2.2851     1.8858 H            1    LIG   0.0000
  48 H            9.9603     3.2381     0.6200 H            1    LIG   0.0000
  49 H            9.5101     3.9100     2.0386 H            1    LIG   0.0000
  50 H            1.9248     7.6636    -0.4028 H            1    LIG   0.0000
  51 H            1.9783     6.6875     0.9052 H            1    LIG   0.0000
  52 H            3.1025     7.8561     0.7119 H            1    LIG   0.0000
  53 H            2.6104     6.6822    -2.3885 H            1    LIG   0.0000
  54 H            3.2058     5.7778    -4.4352 H            1    LIG   0.0000
  55 H            4.7823     5.3782    -4.5818 H            1    LIG   0.0000
  56 H            3.6580     4.2092    -4.3915 H            1    LIG   0.0000
  57 H            4.4636    -0.1686    -0.0271 H            1    LIG   0.0000
  58 H            4.5270    -2.5493    -0.0421 H            1    LIG   0.0000
  59 H            2.4596    -3.7804    -0.0375 H            1    LIG   0.0000
  60 H            0.3935    -2.5944    -0.0191 H            1    LIG   0.0000
  61 H           -1.4052     2.2118    -2.0525 H            1    LIG   0.0000
  62 H           -3.4719     3.4253    -2.0309 H            1    LIG   0.0000
@<TRIPOS>BOND
   1        1        2 1
   2        2        3 1
   3        3        4 1
   4        4        5 ar
   5        5        6 ar
   6        6        7 ar
   7        7        8 1
   8        8        9 1
   9        9       10 1
  10        9       11 2
  11       11       12 1
  12       12       13 2
  13       13       14 1
  14       14       15 2
  15       15       16 1
  16       16       17 1
  17       16       18 2
  18       18       19 1
  19       19       14 1
  20       19       20 1
  21       20       21 ar
  22       21       22 ar
  23       22       23 1
  24       22       24 ar
  25       24       25 ar
  26       25       26 1
  27       25       27 ar
  28       27       20 ar
  29       11       28 1
  30       28       29 ar
  31       29       30 ar
  32       30       31 ar
  33       31       32 ar
  34       32       33 ar
  35       33       28 ar
  36       33       34 1
  37       34        8 1
  38       34       35 2
  39        7       36 ar
  40       36       37 ar
  41       37        4 ar
  42        1       38 1
  43        1       39 1
  44        1       40 1
  45        2       41 1
  46        2       42 1
  47        5       43 1
  48        6       44 1
  49       12       45 1
  50       15       46 1
  51       17       47 1
  52       17       48 1
  53       17       49 1
  54       23       50 1
  55       23       51 1
  56       23       52 1
  57       24       53 1
  58       26       54 1
  59       26       55 1
  60       26       56 1
  61       29       57 1
  62       30       58 1
  63       31       59 1
  64       32       60 1
  65       36       61 1
  66       37       62 1

