@<TRIPOS>MOLECULE
*****
 62 66 0 0 0
SMALL
USER_CHARGES

@<TRIPOS>ATOM
      1 C1         -6.6131    5.2620   -1.0467 C.3     1  LIG1        0.0000
      2 C2         -5.3094    4.4996   -1.2186 C.3     1  LIG1        0.0000
      3 O3         -4.7761    4.1801    0.0581 O.2     1  LIG1        0.0000
      4 C4         -3.6113    3.4981    0.0471 C.3     1  LIG1        0.0000
      5 C5         -3.0144    3.1417    1.2520 C.3     1  LIG1        0.0000
      6 C6         -1.8149    2.4371    1.2315 C.3     1  LIG1        0.0000
      7 C7         -1.2279    2.0980    0.0165 C.3     1  LIG1        0.0000
      8 N8         -0.0198    1.3896    0.0067 N.am    1  LIG1        0.0000
      9 C9          1.1574    2.0939    0.0066 C.2     1  LIG1        0.0000
     10 O10         1.1363    3.4445    0.0158 O.2     1  LIG1       -1.0000
     11 C11         2.3691    1.4501   -0.0037 C.2     1  LIG1        0.0000
     12 C12         3.5761    2.2574   -0.0030 C.2     1  LIG1        0.0000
     13 N13         4.6191    1.8218    0.5306 N.2     1  LIG1        0.0000
     14 C14         5.8263    2.5271    0.5793 C.2     1  LIG1        0.0000
     15 C15         6.0498    3.7643    0.0613 C.2     1  LIG1        0.0000
     16 C16         7.3994    4.0539    0.3489 C.2     1  LIG1        0.0000
     17 C17         8.1413    5.3288   -0.0199 C.3     1  LIG1        0.0000
     18 N18         7.9028    3.0279    0.9946 N.2     1  LIG1        0.0000
     19 N19         6.9878    2.1007    1.1458 N.pl3   1  LIG1        0.0000
     20 C20         7.1787    0.8655    1.7886 C.3     1  LIG1        0.0000
     21 N21         8.3816    0.2614    1.7876 N.pl3   1  LIG1        0.0000
     22 C22         8.6173   -0.9197    2.3869 C.3     1  LIG1        0.0000
     23 C23         9.9830   -1.5986    2.3831 C.3     1  LIG1        0.0000
     24 C24         7.5551   -1.5365    3.0398 C.3     1  LIG1        0.0000
     25 C25         6.3027   -0.9311    3.0558 C.3     1  LIG1        0.0000
     26 C26         5.1529   -1.6255    3.7762 C.3     1  LIG1        0.0000
     27 N27         6.1667    0.2490    2.4274 N.pl3   1  LIG1        0.0000
     28 C28         2.4027    0.0265   -0.0143 C.3     1  LIG1        0.0000
     29 C29         3.6040   -0.6795   -0.0254 C.3     1  LIG1        0.0000
     30 C30         3.6498   -2.0694   -0.0341 C.3     1  LIG1        0.0000
     31 C31         2.4545   -2.7804   -0.0316 C.3     1  LIG1        0.0000
     32 C32         1.2520   -2.0817   -0.0209 C.3     1  LIG1        0.0000
     33 C33         1.2069   -0.6888   -0.0127 C.3     1  LIG1        0.0000
     34 C34        -0.0289    0.0173   -0.0024 C.2     1  LIG1        0.0000
     35 O35        -1.1072   -0.5600   -0.0015 O.2     1  LIG1        0.0000
     36 C36        -1.8325    2.4587   -1.1828 C.3     1  LIG1        0.0000
     37 C37        -3.0316    3.1629   -1.1723 C.3     1  LIG1        0.0000
     38 H          -6.9887    5.4870   -1.9458 H       1  LIG1        0.0000
     39 H          -7.2667    4.6958   -0.5446 H       1  LIG1        0.0000
     40 H          -6.4416    6.1049   -0.5367 H       1  LIG1        0.0000
     41 H          -5.4810    3.6567   -1.7286 H       1  LIG1        0.0000
     42 H          -4.6558    5.0659   -1.7207 H       1  LIG1        0.0000
     43 H          -3.4418    3.3888    2.1216 H       1  LIG1        0.0000
     44 H          -1.3746    2.1744    2.0901 H       1  LIG1        0.0000
     45 H           3.5728    3.1620   -0.4293 H       1  LIG1        0.0000
     46 H           5.3952    4.3459   -0.4217 H       1  LIG1        0.0000
     47 H           7.5231    5.9450   -0.5079 H       1  LIG1        0.0000
     48 H           8.4695    5.7761    0.8121 H       1  LIG1        0.0000
     49 H           8.9193    5.1039   -0.6065 H       1  LIG1        0.0000
     50 H           9.9276   -2.4615    2.8854 H       1  LIG1        0.0000
     51 H          10.2629   -1.7792    1.4402 H       1  LIG1        0.0000
     52 H          10.6539   -1.0003    2.8213 H       1  LIG1        0.0000
     53 H           7.6918   -2.4150    3.4976 H       1  LIG1        0.0000
     54 H           5.4772   -2.4855    4.1701 H       1  LIG1        0.0000
     55 H           4.8103   -1.0332    4.5055 H       1  LIG1        0.0000
     56 H           4.4169   -1.8132    3.1258 H       1  LIG1        0.0000
     57 H           4.4636   -0.1686   -0.0271 H       1  LIG1        0.0000
     58 H           4.5270   -2.5493   -0.0421 H       1  LIG1        0.0000
     59 H           2.4596   -3.7804   -0.0375 H       1  LIG1        0.0000
     60 H           0.3935   -2.5944   -0.0191 H       1  LIG1        0.0000
     61 H          -1.4052    2.2118   -2.0525 H       1  LIG1        0.0000
     62 H          -3.4719    3.4253   -2.0309 H       1  LIG1        0.0000
@<TRIPOS>UNITY_ATOM_ATTR
10 1
charge -1
@<TRIPOS>BOND
     1     1     2    1
     2     2     3    1
     3     3     4    1
     4     4     5   ar
     5     5     6   ar
     6     6     7   ar
     7     7     8    1
     8     8     9    1
     9     9    10    1
    10     9    11    2
    11    11    12    1
    12    12    13    2
    13    13    14    1
    14    14    15    2
    15    15    16    1
    16    16    17    1
    17    16    18    2
    18    18    19    1
    19    19    14    1
    20    19    20    1
    21    20    21   ar
    22    21    22   ar
    23    22    23    1
    24    22    24   ar
    25    24    25   ar
    26    25    26    1
    27    25    27   ar
    28    27    20   ar
    29    11    28    1
    30    28    29   ar
    31    29    30   ar
    32    30    31   ar
    33    31    32   ar
    34    32    33   ar
    35    33    28   ar
    36    33    34    1
    37    34     8   am
    38    34    35    2
    39     7    36   ar
    40    36    37   ar
    41    37     4   ar
    42     1    38    1
    43     1    39    1
    44     1    40    1
    45     2    41    1
    46     2    42    1
    47     5    43    1
    48     6    44    1
    49    12    45    1
    50    15    46    1
    51    17    47    1
    52    17    48    1
    53    17    49    1
    54    23    50    1
    55    23    51    1
    56    23    52    1
    57    24    53    1
    58    26    54    1
    59    26    55    1
    60    26    56    1
    61    29    57    1
    62    30    58    1
    63    31    59    1
    64    32    60    1
    65    36    61    1
    66    37    62    1
