@<TRIPOS>MOLECULE

  23   23
SMALL
USER_CHARGES
@<TRIPOS>ATOM
   1 C1           0.2224     0.2224    -1.6024 C.3          1    LIG   0.0000
   2 S2           1.3483     1.3483    -0.7417 S.3          1    LIG   0.0000
   3 C3           1.0000     1.0000     1.0000 C.3          1    LIG   0.0000
   4 C4           1.8776     1.8776     1.8776 C.3          1    LIG   0.0000
   5 C5           1.5852     1.5852     3.3395 C.ar         1    LIG   0.0000
   6 C6           0.5982     2.3074     4.0015 C.ar         1    LIG   0.0000
   7 C7           0.3244     2.0454     5.3399 C.ar         1    LIG   0.0000
   8 C8           1.0481     1.0584     6.0009 C.ar         1    LIG   0.0000
   9 C9           0.7526     0.7680     7.4631 C.1          1    LIG   0.0000
  10 N10          0.5310     0.5502     8.5600 N.1          1    LIG   0.0000
  11 C11          2.0379     0.3318     5.3468 C.ar         1    LIG   0.0000
  12 C12          2.3052     0.6002     4.0087 C.ar         1    LIG   0.0000
  13 H            0.3321     0.3321    -2.5903 H            1    LIG   0.0000
  14 H            0.4339    -0.7208    -1.3462 H            1    LIG   0.0000
  15 H           -0.7208     0.4339    -1.3462 H            1    LIG   0.0000
  16 H            1.1925     0.0377     1.1925 H            1    LIG   0.0000
  17 H            0.0377     1.1925     1.1925 H            1    LIG   0.0000
  18 H            2.8398     1.6851     1.6851 H            1    LIG   0.0000
  19 H            1.6851     2.8398     1.6851 H            1    LIG   0.0000
  20 H            0.0853     3.0150     3.5154 H            1    LIG   0.0000
  21 H           -0.3846     2.5607     5.8214 H            1    LIG   0.0000
  22 H            2.5513    -0.3753     5.8331 H            1    LIG   0.0000
  23 H            3.0147     0.0855     3.5275 H            1    LIG   0.0000
@<TRIPOS>BOND
   1        1        2 1
   2        2        3 1
   3        3        4 1
   4        4        5 1
   5        5        6 ar
   6        6        7 ar
   7        7        8 ar
   8        8        9 1
   9        9       10 3
  10        8       11 ar
  11       11       12 ar
  12       12        5 ar
  13        1       13 1
  14        1       14 1
  15        1       15 1
  16        3       16 1
  17        3       17 1
  18        4       18 1
  19        4       19 1
  20        6       20 1
  21        7       21 1
  22       11       22 1
  23       12       23 1

@<TRIPOS>MOLECULE

  23   23
SMALL
USER_CHARGES
@<TRIPOS>ATOM
   1 C1           0.6617     3.0091    -0.9572 C.3          1    LIG   0.0000
   2 S2           1.3483     1.3483    -0.7417 S.3          1    LIG   0.0000
   3 C3           1.0000     1.0000     1.0000 C.3          1    LIG   0.0000
   4 C4           1.8776     1.8776     1.8776 C.3          1    LIG   0.0000
   5 C5           1.5852     1.5852     3.3395 C.ar         1    LIG   0.0000
   6 C6           0.5982     2.3074     4.0015 C.ar         1    LIG   0.0000
   7 C7           0.3244     2.0454     5.3399 C.ar         1    LIG   0.0000
   8 C8           1.0481     1.0584     6.0009 C.ar         1    LIG   0.0000
   9 C9           0.7526     0.7680     7.4631 C.1          1    LIG   0.0000
  10 N10          0.5310     0.5502     8.5600 N.1          1    LIG   0.0000
  11 C11          2.0379     0.3318     5.3468 C.ar         1    LIG   0.0000
  12 C12          2.3052     0.6002     4.0087 C.ar         1    LIG   0.0000
  13 H            0.8011     3.3075    -1.9014 H            1    LIG   0.0000
  14 H           -0.3172     2.9941    -0.7534 H            1    LIG   0.0000
  15 H            1.1218     3.6433    -0.3358 H            1    LIG   0.0000
  16 H            1.1925     0.0377     1.1925 H            1    LIG   0.0000
  17 H            0.0377     1.1925     1.1925 H            1    LIG   0.0000
  18 H            2.8398     1.6851     1.6851 H            1    LIG   0.0000
  19 H            1.6851     2.8398     1.6851 H            1    LIG   0.0000
  20 H            0.0853     3.0150     3.5154 H            1    LIG   0.0000
  21 H           -0.3846     2.5607     5.8214 H            1    LIG   0.0000
  22 H            2.5513    -0.3753     5.8331 H            1    LIG   0.0000
  23 H            3.0147     0.0855     3.5275 H            1    LIG   0.0000
@<TRIPOS>BOND
   1        1        2 1
   2        2        3 1
   3        3        4 1
   4        4        5 1
   5        5        6 ar
   6        6        7 ar
   7        7        8 ar
   8        8        9 1
   9        9       10 3
  10        8       11 ar
  11       11       12 ar
  12       12        5 ar
  13        1       13 1
  14        1       14 1
  15        1       15 1
  16        3       16 1
  17        3       17 1
  18        4       18 1
  19        4       19 1
  20        6       20 1
  21        7       21 1
  22       11       22 1
  23       12       23 1

@<TRIPOS>MOLECULE

  23   23
SMALL
USER_CHARGES
@<TRIPOS>ATOM
   1 C1           1.3065    -0.2992    -1.4899 C.3          1    LIG   0.0000
   2 S2           1.3483     1.3483    -0.7417 S.3          1    LIG   0.0000
   3 C3           1.0000     1.0000     1.0000 C.3          1    LIG   0.0000
   4 C4           1.8776     1.8776     1.8776 C.3          1    LIG   0.0000
   5 C5           1.5852     1.5852     3.3395 C.ar         1    LIG   0.0000
   6 C6           1.1238     2.6041     4.1660 C.ar         1    LIG   0.0000
   7 C7           0.8536     2.3443     5.5055 C.ar         1    LIG   0.0000
   8 C8           1.0513     1.0600     6.0019 C.ar         1    LIG   0.0000
   9 C9           0.7573     0.7708     7.4646 C.1          1    LIG   0.0000
  10 N10          0.5367     0.5538     8.5618 N.1          1    LIG   0.0000
  11 C11          1.5136     0.0349     5.1825 C.ar         1    LIG   0.0000
  12 C12          1.7813     0.3035     3.8446 C.ar         1    LIG   0.0000
  13 H            1.4896    -0.2249    -2.4702 H            1    LIG   0.0000
  14 H            2.0028    -0.8767    -1.0636 H            1    LIG   0.0000
  15 H            0.4040    -0.7064    -1.3493 H            1    LIG   0.0000
  16 H            1.1925     0.0377     1.1925 H            1    LIG   0.0000
  17 H            0.0377     1.1925     1.1925 H            1    LIG   0.0000
  18 H            2.8398     1.6851     1.6851 H            1    LIG   0.0000
  19 H            1.6851     2.8398     1.6851 H            1    LIG   0.0000
  20 H            0.9864     3.5234     3.7973 H            1    LIG   0.0000
  21 H            0.5209     3.0724     6.1048 H            1    LIG   0.0000
  22 H            1.6517    -0.8842     5.5514 H            1    LIG   0.0000
  23 H            2.1147    -0.4244     3.2455 H            1    LIG   0.0000
@<TRIPOS>BOND
   1        1        2 1
   2        2        3 1
   3        3        4 1
   4        4        5 1
   5        5        6 ar
   6        6        7 ar
   7        7        8 ar
   8        8        9 1
   9        9       10 3
  10        8       11 ar
  11       11       12 ar
  12       12        5 ar
  13        1       13 1
  14        1       14 1
  15        1       15 1
  16        3       16 1
  17        3       17 1
  18        4       18 1
  19        4       19 1
  20        6       20 1
  21        7       21 1
  22       11       22 1
  23       12       23 1

@<TRIPOS>MOLECULE

  23   23
SMALL
USER_CHARGES
@<TRIPOS>ATOM
   1 C1           0.1753     2.6734    -1.1216 C.3          1    LIG   0.0000
   2 S2           1.3483     1.3483    -0.7417 S.3          1    LIG   0.0000
   3 C3           1.0000     1.0000     1.0000 C.3          1    LIG   0.0000
   4 C4           1.8776     1.8776     1.8776 C.3          1    LIG   0.0000
   5 C5           1.5852     1.5852     3.3395 C.ar         1    LIG   0.0000
   6 C6           1.5334     2.6321     4.2535 C.ar         1    LIG   0.0000
   7 C7           1.2660     2.3726     5.5937 C.ar         1    LIG   0.0000
   8 C8           1.0538     1.0600     6.0024 C.ar         1    LIG   0.0000
   9 C9           0.7610     0.7711     7.4654 C.1          1    LIG   0.0000
  10 N10          0.5413     0.5544     8.5629 N.1          1    LIG   0.0000
  11 C11          1.1048     0.0065     5.0951 C.ar         1    LIG   0.0000
  12 C12          1.3728     0.2749     3.7572 C.ar         1    LIG   0.0000
  13 H            0.2818     2.9490    -2.0769 H            1    LIG   0.0000
  14 H           -0.7576     2.3460    -0.9711 H            1    LIG   0.0000
  15 H            0.3536     3.4571    -0.5267 H            1    LIG   0.0000
  16 H            1.1925     0.0377     1.1925 H            1    LIG   0.0000
  17 H            0.0377     1.1925     1.1925 H            1    LIG   0.0000
  18 H            2.8398     1.6851     1.6851 H            1    LIG   0.0000
  19 H            1.6851     2.8398     1.6851 H            1    LIG   0.0000
  20 H            1.6884     3.5713     3.9473 H            1    LIG   0.0000
  21 H            1.2267     3.1210     6.2557 H            1    LIG   0.0000
  22 H            0.9505    -0.9329     5.4014 H            1    LIG   0.0000
  23 H            1.4130    -0.4736     3.0953 H            1    LIG   0.0000
@<TRIPOS>BOND
   1        1        2 1
   2        2        3 1
   3        3        4 1
   4        4        5 1
   5        5        6 ar
   6        6        7 ar
   7        7        8 ar
   8        8        9 1
   9        9       10 3
  10        8       11 ar
  11       11       12 ar
  12       12        5 ar
  13        1       13 1
  14        1       14 1
  15        1       15 1
  16        3       16 1
  17        3       17 1
  18        4       18 1
  19        4       19 1
  20        6       20 1
  21        7       21 1
  22       11       22 1
  23       12       23 1

@<TRIPOS>MOLECULE

  23   23
SMALL
USER_CHARGES
@<TRIPOS>ATOM
   1 C1           1.8407     3.0897    -0.7053 C.3          1    LIG   0.0000
   2 S2           1.3483     1.3483    -0.7417 S.3          1    LIG   0.0000
   3 C3           1.0000     1.0000     1.0000 C.3          1    LIG   0.0000
   4 C4           1.8776     1.8776     1.8776 C.3          1    LIG   0.0000
   5 C5           1.9669     1.2740     3.2690 C.ar         1    LIG   0.0000
   6 C6           0.8082     1.0951     4.0170 C.ar         1    LIG   0.0000
   7 C7           0.8816     0.5429     5.2916 C.ar         1    LIG   0.0000
   8 C8           2.1223     0.1763     5.8028 C.ar         1    LIG   0.0000
   9 C9           2.2079    -0.4277     7.1947 C.1          1    LIG   0.0000
  10 N10          2.2722    -0.8808     8.2388 N.1          1    LIG   0.0000
  11 C11          3.2866     0.3527     5.0619 C.ar         1    LIG   0.0000
  12 C12          3.2040     0.9055     3.7885 C.ar         1    LIG   0.0000
  13 H            2.0599     3.3936    -1.6324 H            1    LIG   0.0000
  14 H            1.0893     3.6410    -0.3427 H            1    LIG   0.0000
  15 H            2.6448     3.1966    -0.1205 H            1    LIG   0.0000
  16 H            1.1925     0.0377     1.1925 H            1    LIG   0.0000
  17 H            0.0377     1.1925     1.1925 H            1    LIG   0.0000
  18 H            2.7934     1.9363     1.4803 H            1    LIG   0.0000
  19 H            1.4803     2.7934     1.9363 H            1    LIG   0.0000
  20 H           -0.0777     1.3634     3.6385 H            1    LIG   0.0000
  21 H            0.0520     0.4110     5.8341 H            1    LIG   0.0000
  22 H            4.1726     0.0851     5.4406 H            1    LIG   0.0000
  23 H            4.0337     1.0382     3.2462 H            1    LIG   0.0000
@<TRIPOS>BOND
   1        1        2 1
   2        2        3 1
   3        3        4 1
   4        4        5 1
   5        5        6 ar
   6        6        7 ar
   7        7        8 ar
   8        8        9 1
   9        9       10 3
  10        8       11 ar
  11       11       12 ar
  12       12        5 ar
  13        1       13 1
  14        1       14 1
  15        1       15 1
  16        3       16 1
  17        3       17 1
  18        4       18 1
  19        4       19 1
  20        6       20 1
  21        7       21 1
  22       11       22 1
  23       12       23 1

@<TRIPOS>MOLECULE

  23   23
SMALL
USER_CHARGES
@<TRIPOS>ATOM
   1 C1           1.8407     3.0897    -0.7053 C.3          1    LIG   0.0000
   2 S2           1.3483     1.3483    -0.7417 S.3          1    LIG   0.0000
   3 C3           1.0000     1.0000     1.0000 C.3          1    LIG   0.0000
   4 C4           1.8776     1.8776     1.8776 C.3          1    LIG   0.0000
   5 C5           1.2740     1.9669     3.2690 C.ar         1    LIG   0.0000
   6 C6          -0.1040     2.0843     3.4149 C.ar         1    LIG   0.0000
   7 C7          -0.6642     2.1662     4.6855 C.ar         1    LIG   0.0000
   8 C8           0.1687     2.1303     5.7990 C.ar         1    LIG   0.0000
   9 C9          -0.4383     2.2192     7.1894 C.1          1    LIG   0.0000
  10 N10         -0.8937     2.2859     8.2323 N.1          1    LIG   0.0000
  11 C11          1.5484     2.0141     5.6622 C.ar         1    LIG   0.0000
  12 C12          2.1001     1.9328     4.3883 C.ar         1    LIG   0.0000
  13 H            2.0599     3.3936    -1.6324 H            1    LIG   0.0000
  14 H            1.0893     3.6410    -0.3427 H            1    LIG   0.0000
  15 H            2.6448     3.1966    -0.1205 H            1    LIG   0.0000
  16 H            1.1925     0.0377     1.1925 H            1    LIG   0.0000
  17 H            0.0377     1.1925     1.1925 H            1    LIG   0.0000
  18 H            2.7934     1.4803     1.9363 H            1    LIG   0.0000
  19 H            1.9363     2.7934     1.4803 H            1    LIG   0.0000
  20 H           -0.6921     2.1097     2.6065 H            1    LIG   0.0000
  21 H           -1.6544     2.2501     4.7972 H            1    LIG   0.0000
  22 H            2.1365     1.9894     6.4706 H            1    LIG   0.0000
  23 H            3.0903     1.8498     4.2765 H            1    LIG   0.0000
@<TRIPOS>BOND
   1        1        2 1
   2        2        3 1
   3        3        4 1
   4        4        5 1
   5        5        6 ar
   6        6        7 ar
   7        7        8 ar
   8        8        9 1
   9        9       10 3
  10        8       11 ar
  11       11       12 ar
  12       12        5 ar
  13        1       13 1
  14        1       14 1
  15        1       15 1
  16        3       16 1
  17        3       17 1
  18        4       18 1
  19        4       19 1
  20        6       20 1
  21        7       21 1
  22       11       22 1
  23       12       23 1

@<TRIPOS>MOLECULE

  23   23
SMALL
USER_CHARGES
@<TRIPOS>ATOM
   1 C1          -0.1605     2.1870    -1.2860 C.3          1    LIG   0.0000
   2 S2           1.3483     1.3483    -0.7417 S.3          1    LIG   0.0000
   3 C3           1.0000     1.0000     1.0000 C.3          1    LIG   0.0000
   4 C4           1.8776     1.8776     1.8776 C.3          1    LIG   0.0000
   5 C5           1.2740     1.9669     3.2690 C.ar         1    LIG   0.0000
   6 C6          -0.1040     2.0843     3.4149 C.ar         1    LIG   0.0000
   7 C7          -0.6642     2.1662     4.6855 C.ar         1    LIG   0.0000
   8 C8           0.1687     2.1303     5.7990 C.ar         1    LIG   0.0000
   9 C9          -0.4383     2.2192     7.1894 C.1          1    LIG   0.0000
  10 N10         -0.8937     2.2859     8.2323 N.1          1    LIG   0.0000
  11 C11          1.5484     2.0141     5.6622 C.ar         1    LIG   0.0000
  12 C12          2.1001     1.9328     4.3883 C.ar         1    LIG   0.0000
  13 H           -0.0767     2.4297    -2.2525 H            1    LIG   0.0000
  14 H           -0.9437     1.5778    -1.1620 H            1    LIG   0.0000
  15 H           -0.2945     3.0168    -0.7444 H            1    LIG   0.0000
  16 H            1.1925     0.0377     1.1925 H            1    LIG   0.0000
  17 H            0.0377     1.1925     1.1925 H            1    LIG   0.0000
  18 H            2.7934     1.4803     1.9363 H            1    LIG   0.0000
  19 H            1.9363     2.7934     1.4803 H            1    LIG   0.0000
  20 H           -0.6921     2.1097     2.6065 H            1    LIG   0.0000
  21 H           -1.6544     2.2501     4.7972 H            1    LIG   0.0000
  22 H            2.1365     1.9894     6.4706 H            1    LIG   0.0000
  23 H            3.0903     1.8498     4.2765 H            1    LIG   0.0000
@<TRIPOS>BOND
   1        1        2 1
   2        2        3 1
   3        3        4 1
   4        4        5 1
   5        5        6 ar
   6        6        7 ar
   7        7        8 ar
   8        8        9 1
   9        9       10 3
  10        8       11 ar
  11       11       12 ar
  12       12        5 ar
  13        1       13 1
  14        1       14 1
  15        1       15 1
  16        3       16 1
  17        3       17 1
  18        4       18 1
  19        4       19 1
  20        6       20 1
  21        7       21 1
  22       11       22 1
  23       12       23 1

@<TRIPOS>MOLECULE

  23   23
SMALL
USER_CHARGES
@<TRIPOS>ATOM
   1 C1           2.1870    -0.1605    -1.2860 C.3          1    LIG   0.0000
   2 S2           1.3483     1.3483    -0.7417 S.3          1    LIG   0.0000
   3 C3           1.0000     1.0000     1.0000 C.3          1    LIG   0.0000
   4 C4           1.8776     1.8776     1.8776 C.3          1    LIG   0.0000
   5 C5           2.1700     1.1571     3.1828 C.ar         1    LIG   0.0000
   6 C6           1.1188     0.7868     4.0147 C.ar         1    LIG   0.0000
   7 C7           1.3783     0.1266     5.2112 C.ar         1    LIG   0.0000
   8 C8           2.6951    -0.1543     5.5605 C.ar         1    LIG   0.0000
   9 C9           2.9840    -0.8757     6.8666 C.1          1    LIG   0.0000
  10 N10          3.2007    -1.4168     7.8463 N.1          1    LIG   0.0000
  11 C11          3.7529     0.2134     4.7349 C.ar         1    LIG   0.0000
  12 C12          3.4844     0.8731     3.5405 C.ar         1    LIG   0.0000
  13 H            2.4297    -0.0767    -2.2525 H            1    LIG   0.0000
  14 H            3.0168    -0.2945    -0.7444 H            1    LIG   0.0000
  15 H            1.5778    -0.9437    -1.1620 H            1    LIG   0.0000
  16 H            1.1925     0.0377     1.1925 H            1    LIG   0.0000
  17 H            0.0377     1.1925     1.1925 H            1    LIG   0.0000
  18 H            2.7367     2.0700     1.4034 H            1    LIG   0.0000
  19 H            1.4034     2.7367     2.0700 H            1    LIG   0.0000
  20 H            0.1765     0.9951     3.7527 H            1    LIG   0.0000
  21 H            0.6268    -0.1430     5.8134 H            1    LIG   0.0000
  22 H            4.6952     0.0057     4.9973 H            1    LIG   0.0000
  23 H            4.2359     1.1435     2.9387 H            1    LIG   0.0000
@<TRIPOS>BOND
   1        1        2 1
   2        2        3 1
   3        3        4 1
   4        4        5 1
   5        5        6 ar
   6        6        7 ar
   7        7        8 ar
   8        8        9 1
   9        9       10 3
  10        8       11 ar
  11       11       12 ar
  12       12        5 ar
  13        1       13 1
  14        1       14 1
  15        1       15 1
  16        3       16 1
  17        3       17 1
  18        4       18 1
  19        4       19 1
  20        6       20 1
  21        7       21 1
  22       11       22 1
  23       12       23 1

@<TRIPOS>MOLECULE

  23   23
SMALL
USER_CHARGES
@<TRIPOS>ATOM
   1 C1           1.2401     3.1537    -0.8126 C.3          1    LIG   0.0000
   2 S2           1.3483     1.3483    -0.7417 S.3          1    LIG   0.0000
   3 C3           1.0000     1.0000     1.0000 C.3          1    LIG   0.0000
   4 C4           1.8776     1.8776     1.8776 C.3          1    LIG   0.0000
   5 C5           2.1700     1.1571     3.1828 C.ar         1    LIG   0.0000
   6 C6           1.7767     1.7295     4.3877 C.ar         1    LIG   0.0000
   7 C7           2.0405     1.0760     5.5869 C.ar         1    LIG   0.0000
   8 C8           2.6994    -0.1488     5.5626 C.ar         1    LIG   0.0000
   9 C9           2.9898    -0.8671     6.8700 C.1          1    LIG   0.0000
  10 N10          3.2076    -1.4060     7.8508 N.1          1    LIG   0.0000
  11 C11          3.0974    -0.7283     4.3619 C.ar         1    LIG   0.0000
  12 C12          2.8297    -0.0680     3.1677 C.ar         1    LIG   0.0000
  13 H            1.4186     3.4619    -1.7470 H            1    LIG   0.0000
  14 H            0.3242     3.4439    -0.5352 H            1    LIG   0.0000
  15 H            1.9176     3.5528    -0.1947 H            1    LIG   0.0000
  16 H            1.1925     0.0377     1.1925 H            1    LIG   0.0000
  17 H            0.0377     1.1925     1.1925 H            1    LIG   0.0000
  18 H            2.7367     2.0700     1.4034 H            1    LIG   0.0000
  19 H            1.4034     2.7367     2.0700 H            1    LIG   0.0000
  20 H            1.3043     2.6109     4.3919 H            1    LIG   0.0000
  21 H            1.7596     1.4820     6.4566 H            1    LIG   0.0000
  22 H            3.5704    -1.6093     4.3578 H            1    LIG   0.0000
  23 H            3.1112    -0.4736     2.2981 H            1    LIG   0.0000
@<TRIPOS>BOND
   1        1        2 1
   2        2        3 1
   3        3        4 1
   4        4        5 1
   5        5        6 ar
   6        6        7 ar
   7        7        8 ar
   8        8        9 1
   9        9       10 3
  10        8       11 ar
  11       11       12 ar
  12       12        5 ar
  13        1       13 1
  14        1       14 1
  15        1       15 1
  16        3       16 1
  17        3       17 1
  18        4       18 1
  19        4       19 1
  20        6       20 1
  21        7       21 1
  22       11       22 1
  23       12       23 1

@<TRIPOS>MOLECULE

  23   23
SMALL
USER_CHARGES
@<TRIPOS>ATOM
   1 C1          -0.2583     1.9051    -1.3620 C.3          1    LIG   0.0000
   2 S2           1.3483     1.3483    -0.7417 S.3          1    LIG   0.0000
   3 C3           1.0000     1.0000     1.0000 C.3          1    LIG   0.0000
   4 C4           1.8776     1.8776     1.8776 C.3          1    LIG   0.0000
   5 C5           1.1571     2.1700     3.1828 C.ar         1    LIG   0.0000
   6 C6           0.3374     3.2892     3.2805 C.ar         1    LIG   0.0000
   7 C7          -0.3258     3.5635     4.4720 C.ar         1    LIG   0.0000
   8 C8          -0.1571     2.7084     5.5560 C.ar         1    LIG   0.0000
   9 C9          -0.8797     3.0035     6.8600 C.1          1    LIG   0.0000
  10 N10         -1.4218     3.2248     7.8382 N.1          1    LIG   0.0000
  11 C11          0.6618     1.5871     5.4676 C.ar         1    LIG   0.0000
  12 C12          1.3212     1.3204     4.2726 C.ar         1    LIG   0.0000
  13 H           -0.1812     2.1287    -2.3336 H            1    LIG   0.0000
  14 H           -0.9332     1.1773    -1.2400 H            1    LIG   0.0000
  15 H           -0.5483     2.7169    -0.8551 H            1    LIG   0.0000
  16 H            1.1925     0.0377     1.1925 H            1    LIG   0.0000
  17 H            0.0377     1.1925     1.1925 H            1    LIG   0.0000
  18 H            2.7367     1.4034     2.0700 H            1    LIG   0.0000
  19 H            2.0700     2.7367     1.4034 H            1    LIG   0.0000
  20 H            0.2249     3.8967     2.4942 H            1    LIG   0.0000
  21 H           -0.9172     4.3663     4.5484 H            1    LIG   0.0000
  22 H            0.7749     0.9800     6.2541 H            1    LIG   0.0000
  23 H            1.9132     0.5181     4.1964 H            1    LIG   0.0000
@<TRIPOS>BOND
   1        1        2 1
   2        2        3 1
   3        3        4 1
   4        4        5 1
   5        5        6 ar
   6        6        7 ar
   7        7        8 ar
   8        8        9 1
   9        9       10 3
  10        8       11 ar
  11       11       12 ar
  12       12        5 ar
  13        1       13 1
  14        1       14 1
  15        1       15 1
  16        3       16 1
  17        3       17 1
  18        4       18 1
  19        4       19 1
  20        6       20 1
  21        7       21 1
  22       11       22 1
  23       12       23 1

@<TRIPOS>MOLECULE

  23   23
SMALL
USER_CHARGES
@<TRIPOS>ATOM
   1 C1           2.1870    -0.1605    -1.2860 C.3          1    LIG   0.0000
   2 S2           1.3483     1.3483    -0.7417 S.3          1    LIG   0.0000
   3 C3           1.0000     1.0000     1.0000 C.3          1    LIG   0.0000
   4 C4           1.8776     1.8776     1.8776 C.3          1    LIG   0.0000
   5 C5           1.1571     2.1700     3.1828 C.ar         1    LIG   0.0000
   6 C6           0.3374     3.2892     3.2805 C.ar         1    LIG   0.0000
   7 C7          -0.3258     3.5635     4.4720 C.ar         1    LIG   0.0000
   8 C8          -0.1571     2.7084     5.5560 C.ar         1    LIG   0.0000
   9 C9          -0.8797     3.0035     6.8600 C.1          1    LIG   0.0000
  10 N10         -1.4218     3.2248     7.8382 N.1          1    LIG   0.0000
  11 C11          0.6618     1.5871     5.4676 C.ar         1    LIG   0.0000
  12 C12          1.3212     1.3204     4.2726 C.ar         1    LIG   0.0000
  13 H            2.4297    -0.0767    -2.2525 H            1    LIG   0.0000
  14 H            3.0168    -0.2945    -0.7444 H            1    LIG   0.0000
  15 H            1.5778    -0.9437    -1.1620 H            1    LIG   0.0000
  16 H            1.1925     0.0377     1.1925 H            1    LIG   0.0000
  17 H            0.0377     1.1925     1.1925 H            1    LIG   0.0000
  18 H            2.7367     1.4034     2.0700 H            1    LIG   0.0000
  19 H            2.0700     2.7367     1.4034 H            1    LIG   0.0000
  20 H            0.2249     3.8967     2.4942 H            1    LIG   0.0000
  21 H           -0.9172     4.3663     4.5484 H            1    LIG   0.0000
  22 H            0.7749     0.9800     6.2541 H            1    LIG   0.0000
  23 H            1.9132     0.5181     4.1964 H            1    LIG   0.0000
@<TRIPOS>BOND
   1        1        2 1
   2        2        3 1
   3        3        4 1
   4        4        5 1
   5        5        6 ar
   6        6        7 ar
   7        7        8 ar
   8        8        9 1
   9        9       10 3
  10        8       11 ar
  11       11       12 ar
  12       12        5 ar
  13        1       13 1
  14        1       14 1
  15        1       15 1
  16        3       16 1
  17        3       17 1
  18        4       18 1
  19        4       19 1
  20        6       20 1
  21        7       21 1
  22       11       22 1
  23       12       23 1

@<TRIPOS>MOLECULE

  23   23
SMALL
USER_CHARGES
@<TRIPOS>ATOM
   1 C1           1.3065    -0.2992    -1.4899 C.3          1    LIG   0.0000
   2 S2           1.3483     1.3483    -0.7417 S.3          1    LIG   0.0000
   3 C3           1.0000     1.0000     1.0000 C.3          1    LIG   0.0000
   4 C4           1.8776     1.8776     1.8776 C.3          1    LIG   0.0000
   5 C5           1.1571     2.1700     3.1828 C.ar         1    LIG   0.0000
   6 C6          -0.2085     2.4327     3.1710 C.ar         1    LIG   0.0000
   7 C7          -0.8754     2.7010     4.3619 C.ar         1    LIG   0.0000
   8 C8          -0.1606     2.7034     5.5552 C.ar         1    LIG   0.0000
   9 C9          -0.8845     2.9957     6.8591 C.1          1    LIG   0.0000
  10 N10         -1.4275     3.2149     7.8372 N.1          1    LIG   0.0000
  11 C11          1.2059     2.4427     5.5762 C.ar         1    LIG   0.0000
  12 C12          1.8646     2.1755     4.3810 C.ar         1    LIG   0.0000
  13 H            1.4896    -0.2249    -2.4702 H            1    LIG   0.0000
  14 H            2.0028    -0.8767    -1.0636 H            1    LIG   0.0000
  15 H            0.4040    -0.7064    -1.3493 H            1    LIG   0.0000
  16 H            1.1925     0.0377     1.1925 H            1    LIG   0.0000
  17 H            0.0377     1.1925     1.1925 H            1    LIG   0.0000
  18 H            2.7367     1.4034     2.0700 H            1    LIG   0.0000
  19 H            2.0700     2.7367     1.4034 H            1    LIG   0.0000
  20 H           -0.7110     2.4288     2.3064 H            1    LIG   0.0000
  21 H           -1.8574     2.8900     4.3601 H            1    LIG   0.0000
  22 H            1.7085     2.4474     6.4407 H            1    LIG   0.0000
  23 H            2.8468     1.9873     4.3826 H            1    LIG   0.0000
@<TRIPOS>BOND
   1        1        2 1
   2        2        3 1
   3        3        4 1
   4        4        5 1
   5        5        6 ar
   6        6        7 ar
   7        7        8 ar
   8        8        9 1
   9        9       10 3
  10        8       11 ar
  11       11       12 ar
  12       12        5 ar
  13        1       13 1
  14        1       14 1
  15        1       15 1
  16        3       16 1
  17        3       17 1
  18        4       18 1
  19        4       19 1
  20        6       20 1
  21        7       21 1
  22       11       22 1
  23       12       23 1

