@<TRIPOS>MOLECULE
*****
 23 23 0 0 0
SMALL
USER_CHARGES

@<TRIPOS>ATOM
      1 C1         -0.2583    1.9051   -1.3620 C.3     1  LIG1        0.0000
      2 S2          1.3483    1.3483   -0.7417 S.3     1  LIG1        0.0000
      3 C3          1.0000    1.0000    1.0000 C.3     1  LIG1        0.0000
      4 C4          1.8776    1.8776    1.8776 C.3     1  LIG1        0.0000
      5 C5          1.1571    2.1700    3.1828 C.ar    1  LIG1        0.0000
      6 C6          0.3374    3.2892    3.2805 C.ar    1  LIG1        0.0000
      7 C7         -0.3258    3.5635    4.4720 C.ar    1  LIG1        0.0000
      8 C8         -0.1571    2.7084    5.5560 C.ar    1  LIG1        0.0000
      9 C9         -0.8797    3.0035    6.8600 C.1     1  LIG1        0.0000
     10 N10        -1.4218    3.2248    7.8382 N.1     1  LIG1        0.0000
     11 C11         0.6618    1.5871    5.4676 C.ar    1  LIG1        0.0000
     12 C12         1.3212    1.3204    4.2726 C.ar    1  LIG1        0.0000
     13 H          -0.1812    2.1287   -2.3336 H       1  LIG1        0.0000
     14 H          -0.9332    1.1773   -1.2400 H       1  LIG1        0.0000
     15 H          -0.5483    2.7169   -0.8551 H       1  LIG1        0.0000
     16 H           1.1925    0.0377    1.1925 H       1  LIG1        0.0000
     17 H           0.0377    1.1925    1.1925 H       1  LIG1        0.0000
     18 H           2.7367    1.4034    2.0700 H       1  LIG1        0.0000
     19 H           2.0700    2.7367    1.4034 H       1  LIG1        0.0000
     20 H           0.2249    3.8967    2.4942 H       1  LIG1        0.0000
     21 H          -0.9172    4.3663    4.5484 H       1  LIG1        0.0000
     22 H           0.7749    0.9800    6.2541 H       1  LIG1        0.0000
     23 H           1.9132    0.5181    4.1964 H       1  LIG1        0.0000
@<TRIPOS>BOND
     1     1     2    1
     2     2     3    1
     3     3     4    1
     4     4     5    1
     5     5     6   ar
     6     6     7   ar
     7     7     8   ar
     8     8     9    1
     9     9    10    3
    10     8    11   ar
    11    11    12   ar
    12    12     5   ar
    13     1    13    1
    14     1    14    1
    15     1    15    1
    16     3    16    1
    17     3    17    1
    18     4    18    1
    19     4    19    1
    20     6    20    1
    21     7    21    1
    22    11    22    1
    23    12    23    1
