@<TRIPOS>MOLECULE
*****
 23 23 0 0 0
SMALL
USER_CHARGES

@<TRIPOS>ATOM
      1 C1          2.1870   -0.1605   -1.2860 C.3     1  LIG1        0.0000
      2 S2          1.3483    1.3483   -0.7417 S.3     1  LIG1        0.0000
      3 C3          1.0000    1.0000    1.0000 C.3     1  LIG1        0.0000
      4 C4          1.8776    1.8776    1.8776 C.3     1  LIG1        0.0000
      5 C5          2.1700    1.1571    3.1828 C.ar    1  LIG1        0.0000
      6 C6          1.1188    0.7868    4.0147 C.ar    1  LIG1        0.0000
      7 C7          1.3783    0.1266    5.2112 C.ar    1  LIG1        0.0000
      8 C8          2.6951   -0.1543    5.5605 C.ar    1  LIG1        0.0000
      9 C9          2.9840   -0.8757    6.8666 C.1     1  LIG1        0.0000
     10 N10         3.2007   -1.4168    7.8463 N.1     1  LIG1        0.0000
     11 C11         3.7529    0.2134    4.7349 C.ar    1  LIG1        0.0000
     12 C12         3.4844    0.8731    3.5405 C.ar    1  LIG1        0.0000
     13 H           2.4297   -0.0767   -2.2525 H       1  LIG1        0.0000
     14 H           3.0168   -0.2945   -0.7444 H       1  LIG1        0.0000
     15 H           1.5778   -0.9437   -1.1620 H       1  LIG1        0.0000
     16 H           1.1925    0.0377    1.1925 H       1  LIG1        0.0000
     17 H           0.0377    1.1925    1.1925 H       1  LIG1        0.0000
     18 H           2.7367    2.0700    1.4034 H       1  LIG1        0.0000
     19 H           1.4034    2.7367    2.0700 H       1  LIG1        0.0000
     20 H           0.1765    0.9951    3.7527 H       1  LIG1        0.0000
     21 H           0.6268   -0.1430    5.8134 H       1  LIG1        0.0000
     22 H           4.6952    0.0057    4.9973 H       1  LIG1        0.0000
     23 H           4.2359    1.1435    2.9387 H       1  LIG1        0.0000
@<TRIPOS>BOND
     1     1     2    1
     2     2     3    1
     3     3     4    1
     4     4     5    1
     5     5     6   ar
     6     6     7   ar
     7     7     8   ar
     8     8     9    1
     9     9    10    3
    10     8    11   ar
    11    11    12   ar
    12    12     5   ar
    13     1    13    1
    14     1    14    1
    15     1    15    1
    16     3    16    1
    17     3    17    1
    18     4    18    1
    19     4    19    1
    20     6    20    1
    21     7    21    1
    22    11    22    1
    23    12    23    1
