@<TRIPOS>MOLECULE
*****
 23 23 0 0 0
SMALL
USER_CHARGES

@<TRIPOS>ATOM
      1 C1          1.8407    3.0897   -0.7053 C.3     1  LIG1        0.0000
      2 S2          1.3483    1.3483   -0.7417 S.3     1  LIG1        0.0000
      3 C3          1.0000    1.0000    1.0000 C.3     1  LIG1        0.0000
      4 C4          1.8776    1.8776    1.8776 C.3     1  LIG1        0.0000
      5 C5          1.2740    1.9669    3.2690 C.ar    1  LIG1        0.0000
      6 C6         -0.1040    2.0843    3.4149 C.ar    1  LIG1        0.0000
      7 C7         -0.6642    2.1662    4.6855 C.ar    1  LIG1        0.0000
      8 C8          0.1687    2.1303    5.7990 C.ar    1  LIG1        0.0000
      9 C9         -0.4383    2.2192    7.1894 C.1     1  LIG1        0.0000
     10 N10        -0.8937    2.2859    8.2323 N.1     1  LIG1        0.0000
     11 C11         1.5484    2.0141    5.6622 C.ar    1  LIG1        0.0000
     12 C12         2.1001    1.9328    4.3883 C.ar    1  LIG1        0.0000
     13 H           2.0599    3.3936   -1.6324 H       1  LIG1        0.0000
     14 H           1.0893    3.6410   -0.3427 H       1  LIG1        0.0000
     15 H           2.6448    3.1966   -0.1205 H       1  LIG1        0.0000
     16 H           1.1925    0.0377    1.1925 H       1  LIG1        0.0000
     17 H           0.0377    1.1925    1.1925 H       1  LIG1        0.0000
     18 H           2.7934    1.4803    1.9363 H       1  LIG1        0.0000
     19 H           1.9363    2.7934    1.4803 H       1  LIG1        0.0000
     20 H          -0.6921    2.1097    2.6065 H       1  LIG1        0.0000
     21 H          -1.6544    2.2501    4.7972 H       1  LIG1        0.0000
     22 H           2.1365    1.9894    6.4706 H       1  LIG1        0.0000
     23 H           3.0903    1.8498    4.2765 H       1  LIG1        0.0000
@<TRIPOS>BOND
     1     1     2    1
     2     2     3    1
     3     3     4    1
     4     4     5    1
     5     5     6   ar
     6     6     7   ar
     7     7     8   ar
     8     8     9    1
     9     9    10    3
    10     8    11   ar
    11    11    12   ar
    12    12     5   ar
    13     1    13    1
    14     1    14    1
    15     1    15    1
    16     3    16    1
    17     3    17    1
    18     4    18    1
    19     4    19    1
    20     6    20    1
    21     7    21    1
    22    11    22    1
    23    12    23    1
