@<TRIPOS>MOLECULE
*****
 23 23 0 0 0
SMALL
USER_CHARGES

@<TRIPOS>ATOM
      1 C1          1.8407    3.0897   -0.7053 C.3     1  LIG1        0.0000
      2 S2          1.3483    1.3483   -0.7417 S.3     1  LIG1        0.0000
      3 C3          1.0000    1.0000    1.0000 C.3     1  LIG1        0.0000
      4 C4          1.8776    1.8776    1.8776 C.3     1  LIG1        0.0000
      5 C5          1.9669    1.2740    3.2690 C.ar    1  LIG1        0.0000
      6 C6          0.8082    1.0951    4.0170 C.ar    1  LIG1        0.0000
      7 C7          0.8816    0.5429    5.2916 C.ar    1  LIG1        0.0000
      8 C8          2.1223    0.1763    5.8028 C.ar    1  LIG1        0.0000
      9 C9          2.2079   -0.4277    7.1947 C.1     1  LIG1        0.0000
     10 N10         2.2722   -0.8808    8.2388 N.1     1  LIG1        0.0000
     11 C11         3.2866    0.3527    5.0619 C.ar    1  LIG1        0.0000
     12 C12         3.2040    0.9055    3.7885 C.ar    1  LIG1        0.0000
     13 H           2.0599    3.3936   -1.6324 H       1  LIG1        0.0000
     14 H           1.0893    3.6410   -0.3427 H       1  LIG1        0.0000
     15 H           2.6448    3.1966   -0.1205 H       1  LIG1        0.0000
     16 H           1.1925    0.0377    1.1925 H       1  LIG1        0.0000
     17 H           0.0377    1.1925    1.1925 H       1  LIG1        0.0000
     18 H           2.7934    1.9363    1.4803 H       1  LIG1        0.0000
     19 H           1.4803    2.7934    1.9363 H       1  LIG1        0.0000
     20 H          -0.0777    1.3634    3.6385 H       1  LIG1        0.0000
     21 H           0.0520    0.4110    5.8341 H       1  LIG1        0.0000
     22 H           4.1726    0.0851    5.4406 H       1  LIG1        0.0000
     23 H           4.0337    1.0382    3.2462 H       1  LIG1        0.0000
@<TRIPOS>BOND
     1     1     2    1
     2     2     3    1
     3     3     4    1
     4     4     5    1
     5     5     6   ar
     6     6     7   ar
     7     7     8   ar
     8     8     9    1
     9     9    10    3
    10     8    11   ar
    11    11    12   ar
    12    12     5   ar
    13     1    13    1
    14     1    14    1
    15     1    15    1
    16     3    16    1
    17     3    17    1
    18     4    18    1
    19     4    19    1
    20     6    20    1
    21     7    21    1
    22    11    22    1
    23    12    23    1
