@<TRIPOS>MOLECULE
*****
 23 23 0 0 0
SMALL
USER_CHARGES

@<TRIPOS>ATOM
      1 C1          0.1753    2.6734   -1.1216 C.3     1  LIG1        0.0000
      2 S2          1.3483    1.3483   -0.7417 S.3     1  LIG1        0.0000
      3 C3          1.0000    1.0000    1.0000 C.3     1  LIG1        0.0000
      4 C4          1.8776    1.8776    1.8776 C.3     1  LIG1        0.0000
      5 C5          1.5852    1.5852    3.3395 C.ar    1  LIG1        0.0000
      6 C6          1.5334    2.6321    4.2535 C.ar    1  LIG1        0.0000
      7 C7          1.2660    2.3726    5.5937 C.ar    1  LIG1        0.0000
      8 C8          1.0538    1.0600    6.0024 C.ar    1  LIG1        0.0000
      9 C9          0.7610    0.7711    7.4654 C.1     1  LIG1        0.0000
     10 N10         0.5413    0.5544    8.5629 N.1     1  LIG1        0.0000
     11 C11         1.1048    0.0065    5.0951 C.ar    1  LIG1        0.0000
     12 C12         1.3728    0.2749    3.7572 C.ar    1  LIG1        0.0000
     13 H           0.2818    2.9490   -2.0769 H       1  LIG1        0.0000
     14 H          -0.7576    2.3460   -0.9711 H       1  LIG1        0.0000
     15 H           0.3536    3.4571   -0.5267 H       1  LIG1        0.0000
     16 H           1.1925    0.0377    1.1925 H       1  LIG1        0.0000
     17 H           0.0377    1.1925    1.1925 H       1  LIG1        0.0000
     18 H           2.8398    1.6851    1.6851 H       1  LIG1        0.0000
     19 H           1.6851    2.8398    1.6851 H       1  LIG1        0.0000
     20 H           1.6884    3.5713    3.9473 H       1  LIG1        0.0000
     21 H           1.2267    3.1210    6.2557 H       1  LIG1        0.0000
     22 H           0.9505   -0.9329    5.4014 H       1  LIG1        0.0000
     23 H           1.4130   -0.4736    3.0953 H       1  LIG1        0.0000
@<TRIPOS>BOND
     1     1     2    1
     2     2     3    1
     3     3     4    1
     4     4     5    1
     5     5     6   ar
     6     6     7   ar
     7     7     8   ar
     8     8     9    1
     9     9    10    3
    10     8    11   ar
    11    11    12   ar
    12    12     5   ar
    13     1    13    1
    14     1    14    1
    15     1    15    1
    16     3    16    1
    17     3    17    1
    18     4    18    1
    19     4    19    1
    20     6    20    1
    21     7    21    1
    22    11    22    1
    23    12    23    1
