@<TRIPOS>MOLECULE
*****
 23 23 0 0 0
SMALL
USER_CHARGES

@<TRIPOS>ATOM
      1 C1          1.2401    3.1537   -0.8126 C.3     1  LIG1        0.0000
      2 S2          1.3483    1.3483   -0.7417 S.3     1  LIG1        0.0000
      3 C3          1.0000    1.0000    1.0000 C.3     1  LIG1        0.0000
      4 C4          1.8776    1.8776    1.8776 C.3     1  LIG1        0.0000
      5 C5          2.1700    1.1571    3.1828 C.ar    1  LIG1        0.0000
      6 C6          1.7767    1.7295    4.3877 C.ar    1  LIG1        0.0000
      7 C7          2.0405    1.0760    5.5869 C.ar    1  LIG1        0.0000
      8 C8          2.6994   -0.1488    5.5626 C.ar    1  LIG1        0.0000
      9 C9          2.9898   -0.8671    6.8700 C.1     1  LIG1        0.0000
     10 N10         3.2076   -1.4060    7.8508 N.1     1  LIG1        0.0000
     11 C11         3.0974   -0.7283    4.3619 C.ar    1  LIG1        0.0000
     12 C12         2.8297   -0.0680    3.1677 C.ar    1  LIG1        0.0000
     13 H           1.4186    3.4619   -1.7470 H       1  LIG1        0.0000
     14 H           0.3242    3.4439   -0.5352 H       1  LIG1        0.0000
     15 H           1.9176    3.5528   -0.1947 H       1  LIG1        0.0000
     16 H           1.1925    0.0377    1.1925 H       1  LIG1        0.0000
     17 H           0.0377    1.1925    1.1925 H       1  LIG1        0.0000
     18 H           2.7367    2.0700    1.4034 H       1  LIG1        0.0000
     19 H           1.4034    2.7367    2.0700 H       1  LIG1        0.0000
     20 H           1.3043    2.6109    4.3919 H       1  LIG1        0.0000
     21 H           1.7596    1.4820    6.4566 H       1  LIG1        0.0000
     22 H           3.5704   -1.6093    4.3578 H       1  LIG1        0.0000
     23 H           3.1112   -0.4736    2.2981 H       1  LIG1        0.0000
@<TRIPOS>BOND
     1     1     2    1
     2     2     3    1
     3     3     4    1
     4     4     5    1
     5     5     6   ar
     6     6     7   ar
     7     7     8   ar
     8     8     9    1
     9     9    10    3
    10     8    11   ar
    11    11    12   ar
    12    12     5   ar
    13     1    13    1
    14     1    14    1
    15     1    15    1
    16     3    16    1
    17     3    17    1
    18     4    18    1
    19     4    19    1
    20     6    20    1
    21     7    21    1
    22    11    22    1
    23    12    23    1
