@<TRIPOS>MOLECULE
*****
 23 23 0 0 0
SMALL
USER_CHARGES

@<TRIPOS>ATOM
      1 C1          1.3065   -0.2992   -1.4899 C.3     1  LIG1        0.0000
      2 S2          1.3483    1.3483   -0.7417 S.3     1  LIG1        0.0000
      3 C3          1.0000    1.0000    1.0000 C.3     1  LIG1        0.0000
      4 C4          1.8776    1.8776    1.8776 C.3     1  LIG1        0.0000
      5 C5          1.1571    2.1700    3.1828 C.ar    1  LIG1        0.0000
      6 C6         -0.2085    2.4327    3.1710 C.ar    1  LIG1        0.0000
      7 C7         -0.8754    2.7010    4.3619 C.ar    1  LIG1        0.0000
      8 C8         -0.1606    2.7034    5.5552 C.ar    1  LIG1        0.0000
      9 C9         -0.8845    2.9957    6.8591 C.1     1  LIG1        0.0000
     10 N10        -1.4275    3.2149    7.8372 N.1     1  LIG1        0.0000
     11 C11         1.2059    2.4427    5.5762 C.ar    1  LIG1        0.0000
     12 C12         1.8646    2.1755    4.3810 C.ar    1  LIG1        0.0000
     13 H           1.4896   -0.2249   -2.4702 H       1  LIG1        0.0000
     14 H           2.0028   -0.8767   -1.0636 H       1  LIG1        0.0000
     15 H           0.4040   -0.7064   -1.3493 H       1  LIG1        0.0000
     16 H           1.1925    0.0377    1.1925 H       1  LIG1        0.0000
     17 H           0.0377    1.1925    1.1925 H       1  LIG1        0.0000
     18 H           2.7367    1.4034    2.0700 H       1  LIG1        0.0000
     19 H           2.0700    2.7367    1.4034 H       1  LIG1        0.0000
     20 H          -0.7110    2.4288    2.3064 H       1  LIG1        0.0000
     21 H          -1.8574    2.8900    4.3601 H       1  LIG1        0.0000
     22 H           1.7085    2.4474    6.4407 H       1  LIG1        0.0000
     23 H           2.8468    1.9873    4.3826 H       1  LIG1        0.0000
@<TRIPOS>BOND
     1     1     2    1
     2     2     3    1
     3     3     4    1
     4     4     5    1
     5     5     6   ar
     6     6     7   ar
     7     7     8   ar
     8     8     9    1
     9     9    10    3
    10     8    11   ar
    11    11    12   ar
    12    12     5   ar
    13     1    13    1
    14     1    14    1
    15     1    15    1
    16     3    16    1
    17     3    17    1
    18     4    18    1
    19     4    19    1
    20     6    20    1
    21     7    21    1
    22    11    22    1
    23    12    23    1
