@<TRIPOS>MOLECULE
*****
 23 23 0 0 0
SMALL
USER_CHARGES

@<TRIPOS>ATOM
      1 C1          0.2224    0.2224   -1.6024 C.3     1  LIG1        0.0000
      2 S2          1.3483    1.3483   -0.7417 S.3     1  LIG1        0.0000
      3 C3          1.0000    1.0000    1.0000 C.3     1  LIG1        0.0000
      4 C4          1.8776    1.8776    1.8776 C.3     1  LIG1        0.0000
      5 C5          1.5852    1.5852    3.3395 C.ar    1  LIG1        0.0000
      6 C6          0.5982    2.3074    4.0015 C.ar    1  LIG1        0.0000
      7 C7          0.3244    2.0454    5.3399 C.ar    1  LIG1        0.0000
      8 C8          1.0481    1.0584    6.0009 C.ar    1  LIG1        0.0000
      9 C9          0.7526    0.7680    7.4631 C.1     1  LIG1        0.0000
     10 N10         0.5310    0.5502    8.5600 N.1     1  LIG1        0.0000
     11 C11         2.0379    0.3318    5.3468 C.ar    1  LIG1        0.0000
     12 C12         2.3052    0.6002    4.0087 C.ar    1  LIG1        0.0000
     13 H           0.3321    0.3321   -2.5903 H       1  LIG1        0.0000
     14 H           0.4339   -0.7208   -1.3462 H       1  LIG1        0.0000
     15 H          -0.7208    0.4339   -1.3462 H       1  LIG1        0.0000
     16 H           1.1925    0.0377    1.1925 H       1  LIG1        0.0000
     17 H           0.0377    1.1925    1.1925 H       1  LIG1        0.0000
     18 H           2.8398    1.6851    1.6851 H       1  LIG1        0.0000
     19 H           1.6851    2.8398    1.6851 H       1  LIG1        0.0000
     20 H           0.0853    3.0150    3.5154 H       1  LIG1        0.0000
     21 H          -0.3846    2.5607    5.8214 H       1  LIG1        0.0000
     22 H           2.5513   -0.3753    5.8331 H       1  LIG1        0.0000
     23 H           3.0147    0.0855    3.5275 H       1  LIG1        0.0000
@<TRIPOS>BOND
     1     1     2    1
     2     2     3    1
     3     3     4    1
     4     4     5    1
     5     5     6   ar
     6     6     7   ar
     7     7     8   ar
     8     8     9    1
     9     9    10    3
    10     8    11   ar
    11    11    12   ar
    12    12     5   ar
    13     1    13    1
    14     1    14    1
    15     1    15    1
    16     3    16    1
    17     3    17    1
    18     4    18    1
    19     4    19    1
    20     6    20    1
    21     7    21    1
    22    11    22    1
    23    12    23    1
