@<TRIPOS>MOLECULE

  62   66
SMALL
USER_CHARGES
@<TRIPOS>ATOM
   1 C1           0.5171     5.2742     7.1263 C.3          1    LIG   0.0000
   2 O2           1.5898     5.5290     6.2315 O.3          1    LIG   0.0000
   3 C3           1.4274     5.0527     4.9789 C.ar         1    LIG   0.0000
   4 C4           2.4243     5.2526     4.0299 C.ar         1    LIG   0.0000
   5 C5           2.2627     4.7631     2.7379 C.ar         1    LIG   0.0000
   6 C6           1.0980     4.0753     2.4138 C.ar         1    LIG   0.0000
   7 C7           0.9151     3.5368     1.0040 C.3          1    LIG   0.0000
   8 C8          -0.1440     4.2718     0.2144 C.3          1    LIG   0.0000
   9 C9          -1.3846     3.4805     0.5774 C.2          1    LIG   0.0000
  10 C10         -2.7481     3.9590     0.4596 C.ar         1    LIG   0.0000
  11 C11         -2.9859     5.2411    -0.0246 C.ar         1    LIG   0.0000
  12 C12         -4.2966     5.6952    -0.1366 C.ar         1    LIG   0.0000
  13 C13         -5.3530     4.8701     0.2341 C.ar         1    LIG   0.0000
  14 C14         -6.6597     5.3325     0.1158 C.ar         1    LIG   0.0000
  15 C15         -7.7104     4.5001     0.4867 C.ar         1    LIG   0.0000
  16 C16         -7.4628     3.2206     0.9714 C.ar         1    LIG   0.0000
  17 C17         -6.1544     2.7633     1.0870 C.ar         1    LIG   0.0000
  18 C18         -5.0995     3.5909     0.7169 C.ar         1    LIG   0.0000
  19 C19         -3.7949     3.1234     0.8333 C.ar         1    LIG   0.0000
  20 N20         -1.0414     2.3414     1.0000 N.2          1    LIG   0.0000
  21 N21          0.2988     2.2145     1.0000 N.am         1    LIG   0.0000
  22 C22          1.0000     1.0000     1.0000 C.2          1    LIG   0.0000
  23 O23          0.4000    -0.0392     1.0000 O.2          1    LIG   0.0000
  24 C24          2.5200     1.0000     1.0000 C.3          1    LIG   0.0000
  25 N25          3.0100    -0.3859     1.0000 N.pl3        1    LIG   0.0000
  26 C26          4.3869    -0.6418     1.0000 C.ar         1    LIG   0.0000
  27 C27          5.2366     0.2747     0.3886 C.ar         1    LIG   0.0000
  28 C28          6.6091     0.0480     0.3734 C.ar         1    LIG   0.0000
  29 C29          7.1321    -1.0957     0.9680 C.ar         1    LIG   0.0000
  30 C30          6.2823    -2.0133     1.5784 C.ar         1    LIG   0.0000
  31 C31          4.9098    -1.7865     1.5946 C.ar         1    LIG   0.0000
  32 C32          4.0244    -2.7427     2.2308 C.2          1    LIG   0.0000
  33 N33          4.5396    -3.8693     2.8160 N.am         1    LIG   0.0000
  34 O34          2.8405    -2.5471     2.2448 O.2          1    LIG   0.0000
  35 C35          0.1010     3.8757     3.3630 C.ar         1    LIG   0.0000
  36 C36          0.2624     4.3654     4.6549 C.ar         1    LIG   0.0000
  37 H            1.7848     3.5264     0.5106 H            1    LIG   0.0000
  38 H            0.7307     5.6636     8.0223 H            1    LIG   0.0000
  39 H           -0.3192     5.6923     6.7719 H            1    LIG   0.0000
  40 H            0.3845     4.2870     7.2151 H            1    LIG   0.0000
  41 H            3.2572     5.7482     4.2764 H            1    LIG   0.0000
  42 H            2.9751     4.9040     2.0505 H            1    LIG   0.0000
  43 H           -0.2205     5.2260     0.5036 H            1    LIG   0.0000
  44 H            0.0397     4.2349    -0.7679 H            1    LIG   0.0000
  45 H           -2.2227     5.8305    -0.2895 H            1    LIG   0.0000
  46 H           -4.4788     6.6151    -0.4838 H            1    LIG   0.0000
  47 H           -6.8414     6.2523    -0.2319 H            1    LIG   0.0000
  48 H           -8.6526     4.8249     0.4042 H            1    LIG   0.0000
  49 H           -8.2248     2.6298     1.2365 H            1    LIG   0.0000
  50 H           -5.9729     1.8435     1.4348 H            1    LIG   0.0000
  51 H           -3.6129     2.2030     1.1793 H            1    LIG   0.0000
  52 H            2.8533     1.4714     0.1835 H            1    LIG   0.0000
  53 H            2.8533     1.4714     1.8165 H            1    LIG   0.0000
  54 H            2.3602    -1.1460     1.0000 H            1    LIG   0.0000
  55 H            4.8607     1.0963    -0.0400 H            1    LIG   0.0000
  56 H            7.2199     0.7074    -0.0650 H            1    LIG   0.0000
  57 H            8.1187    -1.2585     0.9569 H            1    LIG   0.0000
  58 H            6.6582    -2.8358     2.0053 H            1    LIG   0.0000
  59 H            5.5261    -4.0322     2.8043 H            1    LIG   0.0000
  60 H            3.9290    -4.5286     3.2547 H            1    LIG   0.0000
  61 H           -0.7319     3.3801     3.1166 H            1    LIG   0.0000
  62 H           -0.4503     4.2251     5.3422 H            1    LIG   0.0000
@<TRIPOS>BOND
   1        1        2 1
   2        2        3 1
   3        3        4 ar
   4        4        5 ar
   5        5        6 ar
   6        6        7 1
   7        7        8 1
   8        8        9 1
   9        9       10 1
  10       10       11 ar
  11       11       12 ar
  12       12       13 ar
  13       13       14 ar
  14       14       15 ar
  15       15       16 ar
  16       16       17 ar
  17       17       18 ar
  18       18       13 ar
  19       18       19 ar
  20       19       10 ar
  21        9       20 2
  22       20       21 1
  23       21        7 1
  24       21       22 am
  25       22       23 2
  26       22       24 1
  27       24       25 1
  28       25       26 1
  29       26       27 ar
  30       27       28 ar
  31       28       29 ar
  32       29       30 ar
  33       30       31 ar
  34       31       26 ar
  35       31       32 1
  36       32       33 am
  37       32       34 2
  38        6       35 ar
  39       35       36 ar
  40       36        3 ar
  41        7       37 1
  42        1       38 1
  43        1       39 1
  44        1       40 1
  45        4       41 1
  46        5       42 1
  47        8       43 1
  48        8       44 1
  49       11       45 1
  50       12       46 1
  51       14       47 1
  52       15       48 1
  53       16       49 1
  54       17       50 1
  55       19       51 1
  56       24       52 1
  57       24       53 1
  58       25       54 1
  59       27       55 1
  60       28       56 1
  61       29       57 1
  62       30       58 1
  63       33       59 1
  64       33       60 1
  65       35       61 1
  66       36       62 1

@<TRIPOS>MOLECULE

  62   66
SMALL
USER_CHARGES
@<TRIPOS>ATOM
   1 C1           0.5171     5.2742     7.1263 C.3          1    LIG   0.0000
   2 O2           1.5898     5.5290     6.2315 O.3          1    LIG   0.0000
   3 C3           1.4274     5.0527     4.9789 C.ar         1    LIG   0.0000
   4 C4           2.4243     5.2526     4.0299 C.ar         1    LIG   0.0000
   5 C5           2.2627     4.7631     2.7379 C.ar         1    LIG   0.0000
   6 C6           1.0980     4.0753     2.4138 C.ar         1    LIG   0.0000
   7 C7           0.9151     3.5368     1.0040 C.3          1    LIG   0.0000
   8 C8          -0.1440     4.2718     0.2144 C.3          1    LIG   0.0000
   9 C9          -1.3846     3.4805     0.5774 C.2          1    LIG   0.0000
  10 C10         -2.7481     3.9590     0.4596 C.ar         1    LIG   0.0000
  11 C11         -3.8009     3.1299     0.8323 C.ar         1    LIG   0.0000
  12 C12         -5.1077     3.5944     0.7182 C.ar         1    LIG   0.0000
  13 C13         -5.3512     4.8757     0.2353 C.ar         1    LIG   0.0000
  14 C14         -6.6610     5.3317     0.1276 C.ar         1    LIG   0.0000
  15 C15         -6.8954     6.6151    -0.3544 C.ar         1    LIG   0.0000
  16 C16         -5.8367     7.4361    -0.7262 C.ar         1    LIG   0.0000
  17 C17         -4.5291     6.9753    -0.6159 C.ar         1    LIG   0.0000
  18 C18         -4.2883     5.6930    -0.1339 C.ar         1    LIG   0.0000
  19 C19         -2.9771     5.2424    -0.0242 C.ar         1    LIG   0.0000
  20 N20         -1.0414     2.3414     1.0000 N.2          1    LIG   0.0000
  21 N21          0.2988     2.2145     1.0000 N.am         1    LIG   0.0000
  22 C22          1.0000     1.0000     1.0000 C.2          1    LIG   0.0000
  23 O23          0.4000    -0.0392     1.0000 O.2          1    LIG   0.0000
  24 C24          2.5200     1.0000     1.0000 C.3          1    LIG   0.0000
  25 N25          3.0100    -0.3859     1.0000 N.pl3        1    LIG   0.0000
  26 C26          4.3869    -0.6418     1.0000 C.ar         1    LIG   0.0000
  27 C27          5.2366     0.2747     0.3886 C.ar         1    LIG   0.0000
  28 C28          6.6091     0.0480     0.3734 C.ar         1    LIG   0.0000
  29 C29          7.1321    -1.0957     0.9680 C.ar         1    LIG   0.0000
  30 C30          6.2823    -2.0133     1.5784 C.ar         1    LIG   0.0000
  31 C31          4.9098    -1.7865     1.5946 C.ar         1    LIG   0.0000
  32 C32          4.0244    -2.7427     2.2308 C.2          1    LIG   0.0000
  33 N33          4.5396    -3.8693     2.8160 N.am         1    LIG   0.0000
  34 O34          2.8405    -2.5471     2.2448 O.2          1    LIG   0.0000
  35 C35          0.1010     3.8757     3.3630 C.ar         1    LIG   0.0000
  36 C36          0.2624     4.3654     4.6549 C.ar         1    LIG   0.0000
  37 H            1.7848     3.5264     0.5106 H            1    LIG   0.0000
  38 H            0.7307     5.6636     8.0223 H            1    LIG   0.0000
  39 H           -0.3192     5.6923     6.7719 H            1    LIG   0.0000
  40 H            0.3845     4.2870     7.2151 H            1    LIG   0.0000
  41 H            3.2572     5.7482     4.2764 H            1    LIG   0.0000
  42 H            2.9751     4.9040     2.0505 H            1    LIG   0.0000
  43 H           -0.2205     5.2260     0.5036 H            1    LIG   0.0000
  44 H            0.0397     4.2349    -0.7679 H            1    LIG   0.0000
  45 H           -3.6205     2.2093     1.1787 H            1    LIG   0.0000
  46 H           -5.8720     3.0067     0.9836 H            1    LIG   0.0000
  47 H           -7.4249     4.7437     0.3935 H            1    LIG   0.0000
  48 H           -7.8341     6.9505    -0.4343 H            1    LIG   0.0000
  49 H           -6.0152     8.3570    -1.0726 H            1    LIG   0.0000
  50 H           -3.7653     7.5634    -0.8820 H            1    LIG   0.0000
  51 H           -2.2129     5.8307    -0.2886 H            1    LIG   0.0000
  52 H            2.8533     1.4714     0.1835 H            1    LIG   0.0000
  53 H            2.8533     1.4714     1.8165 H            1    LIG   0.0000
  54 H            2.3602    -1.1460     1.0000 H            1    LIG   0.0000
  55 H            4.8607     1.0963    -0.0400 H            1    LIG   0.0000
  56 H            7.2199     0.7074    -0.0650 H            1    LIG   0.0000
  57 H            8.1187    -1.2585     0.9569 H            1    LIG   0.0000
  58 H            6.6582    -2.8358     2.0053 H            1    LIG   0.0000
  59 H            5.5261    -4.0322     2.8043 H            1    LIG   0.0000
  60 H            3.9290    -4.5286     3.2547 H            1    LIG   0.0000
  61 H           -0.7319     3.3801     3.1166 H            1    LIG   0.0000
  62 H           -0.4503     4.2251     5.3422 H            1    LIG   0.0000
@<TRIPOS>BOND
   1        1        2 1
   2        2        3 1
   3        3        4 ar
   4        4        5 ar
   5        5        6 ar
   6        6        7 1
   7        7        8 1
   8        8        9 1
   9        9       10 1
  10       10       11 ar
  11       11       12 ar
  12       12       13 ar
  13       13       14 ar
  14       14       15 ar
  15       15       16 ar
  16       16       17 ar
  17       17       18 ar
  18       18       13 ar
  19       18       19 ar
  20       19       10 ar
  21        9       20 2
  22       20       21 1
  23       21        7 1
  24       21       22 am
  25       22       23 2
  26       22       24 1
  27       24       25 1
  28       25       26 1
  29       26       27 ar
  30       27       28 ar
  31       28       29 ar
  32       29       30 ar
  33       30       31 ar
  34       31       26 ar
  35       31       32 1
  36       32       33 am
  37       32       34 2
  38        6       35 ar
  39       35       36 ar
  40       36        3 ar
  41        7       37 1
  42        1       38 1
  43        1       39 1
  44        1       40 1
  45        4       41 1
  46        5       42 1
  47        8       43 1
  48        8       44 1
  49       11       45 1
  50       12       46 1
  51       14       47 1
  52       15       48 1
  53       16       49 1
  54       17       50 1
  55       19       51 1
  56       24       52 1
  57       24       53 1
  58       25       54 1
  59       27       55 1
  60       28       56 1
  61       29       57 1
  62       30       58 1
  63       33       59 1
  64       33       60 1
  65       35       61 1
  66       36       62 1

@<TRIPOS>MOLECULE

  62   66
SMALL
USER_CHARGES
@<TRIPOS>ATOM
   1 C1           6.7106     3.9514     3.6950 C.3          1    LIG   0.0000
   2 O2           5.5319     3.4194     4.2816 O.3          1    LIG   0.0000
   3 C3           4.4315     3.4446     3.5001 C.ar         1    LIG   0.0000
   4 C4           3.2280     2.9455     3.9868 C.ar         1    LIG   0.0000
   5 C5           2.0906     2.9699     3.1863 C.ar         1    LIG   0.0000
   6 C6           2.1758     3.4982     1.9024 C.ar         1    LIG   0.0000
   7 C7           0.9366     3.5288     1.0225 C.3          1    LIG   0.0000
   8 C8          -0.1481     4.3605     1.6747 C.3          1    LIG   0.0000
   9 C9          -1.3704     3.5270     1.3658 C.2          1    LIG   0.0000
  10 C10         -2.7334     4.0066     1.4857 C.ar         1    LIG   0.0000
  11 C11         -2.9668     5.3143     1.8982 C.ar         1    LIG   0.0000
  12 C12         -4.2768     5.7701     2.0107 C.ar         1    LIG   0.0000
  13 C13         -5.3371     4.9209     1.7124 C.ar         1    LIG   0.0000
  14 C14         -6.6430     5.3868     1.8254 C.ar         1    LIG   0.0000
  15 C15         -7.6974     4.5316     1.5232 C.ar         1    LIG   0.0000
  16 C16         -7.4542     3.2255     1.1134 C.ar         1    LIG   0.0000
  17 C17         -6.1466     2.7650     1.0015 C.ar         1    LIG   0.0000
  18 C18         -5.0880     3.6158     1.3017 C.ar         1    LIG   0.0000
  19 C19         -3.7839     3.1471     1.1838 C.ar         1    LIG   0.0000
  20 N20         -1.0385     2.3609     1.0000 N.2          1    LIG   0.0000
  21 N21          0.2986     2.2149     1.0000 N.am         1    LIG   0.0000
  22 C22          1.0000     1.0000     1.0000 C.2          1    LIG   0.0000
  23 O23          0.4000    -0.0392     1.0000 O.2          1    LIG   0.0000
  24 C24          2.5200     1.0000     1.0000 C.3          1    LIG   0.0000
  25 N25          3.0100    -0.3859     1.0000 N.pl3        1    LIG   0.0000
  26 C26          4.3869    -0.6418     1.0000 C.ar         1    LIG   0.0000
  27 C27          5.2366     0.2747     0.3886 C.ar         1    LIG   0.0000
  28 C28          6.6091     0.0480     0.3734 C.ar         1    LIG   0.0000
  29 C29          7.1321    -1.0957     0.9680 C.ar         1    LIG   0.0000
  30 C30          6.2823    -2.0133     1.5784 C.ar         1    LIG   0.0000
  31 C31          4.9098    -1.7865     1.5946 C.ar         1    LIG   0.0000
  32 C32          4.0244    -2.7427     2.2308 C.2          1    LIG   0.0000
  33 N33          4.5396    -3.8693     2.8160 N.am         1    LIG   0.0000
  34 O34          2.8405    -2.5471     2.2448 O.2          1    LIG   0.0000
  35 C35          3.3796     3.9971     1.4158 C.ar         1    LIG   0.0000
  36 C36          4.5171     3.9725     2.2162 C.ar         1    LIG   0.0000
  37 H            1.1465     3.8533     0.1001 H            1    LIG   0.0000
  38 H            7.4655     3.8883     4.3477 H            1    LIG   0.0000
  39 H            6.9373     3.4310     2.8717 H            1    LIG   0.0000
  40 H            6.5589     4.9096     3.4524 H            1    LIG   0.0000
  41 H            3.1803     2.5691     4.9121 H            1    LIG   0.0000
  42 H            1.2223     2.6119     3.5296 H            1    LIG   0.0000
  43 H           -0.0020     4.4481     2.6601 H            1    LIG   0.0000
  44 H           -0.2103     5.2705     1.2648 H            1    LIG   0.0000
  45 H           -2.2009     5.9208     2.1118 H            1    LIG   0.0000
  46 H           -4.4559     6.7085     2.3061 H            1    LIG   0.0000
  47 H           -6.8215     6.3255     2.1205 H            1    LIG   0.0000
  48 H           -8.6389     4.8592     1.6014 H            1    LIG   0.0000
  49 H           -8.2189     2.6176     0.8992 H            1    LIG   0.0000
  50 H           -5.9683     1.8263     0.7066 H            1    LIG   0.0000
  51 H           -3.6050     2.2090     0.8872 H            1    LIG   0.0000
  52 H            2.8533     1.4714     0.1835 H            1    LIG   0.0000
  53 H            2.8533     1.4714     1.8165 H            1    LIG   0.0000
  54 H            2.3602    -1.1460     1.0000 H            1    LIG   0.0000
  55 H            4.8607     1.0963    -0.0400 H            1    LIG   0.0000
  56 H            7.2199     0.7074    -0.0650 H            1    LIG   0.0000
  57 H            8.1187    -1.2585     0.9569 H            1    LIG   0.0000
  58 H            6.6582    -2.8358     2.0053 H            1    LIG   0.0000
  59 H            5.5261    -4.0322     2.8043 H            1    LIG   0.0000
  60 H            3.9290    -4.5286     3.2547 H            1    LIG   0.0000
  61 H            3.4274     4.3735     0.4906 H            1    LIG   0.0000
  62 H            5.3856     4.3299     1.8727 H            1    LIG   0.0000
@<TRIPOS>BOND
   1        1        2 1
   2        2        3 1
   3        3        4 ar
   4        4        5 ar
   5        5        6 ar
   6        6        7 1
   7        7        8 1
   8        8        9 1
   9        9       10 1
  10       10       11 ar
  11       11       12 ar
  12       12       13 ar
  13       13       14 ar
  14       14       15 ar
  15       15       16 ar
  16       16       17 ar
  17       17       18 ar
  18       18       13 ar
  19       18       19 ar
  20       19       10 ar
  21        9       20 2
  22       20       21 1
  23       21        7 1
  24       21       22 am
  25       22       23 2
  26       22       24 1
  27       24       25 1
  28       25       26 1
  29       26       27 ar
  30       27       28 ar
  31       28       29 ar
  32       29       30 ar
  33       30       31 ar
  34       31       26 ar
  35       31       32 1
  36       32       33 am
  37       32       34 2
  38        6       35 ar
  39       35       36 ar
  40       36        3 ar
  41        7       37 1
  42        1       38 1
  43        1       39 1
  44        1       40 1
  45        4       41 1
  46        5       42 1
  47        8       43 1
  48        8       44 1
  49       11       45 1
  50       12       46 1
  51       14       47 1
  52       15       48 1
  53       16       49 1
  54       17       50 1
  55       19       51 1
  56       24       52 1
  57       24       53 1
  58       25       54 1
  59       27       55 1
  60       28       56 1
  61       29       57 1
  62       30       58 1
  63       33       59 1
  64       33       60 1
  65       35       61 1
  66       36       62 1

@<TRIPOS>MOLECULE

  62   66
SMALL
USER_CHARGES
@<TRIPOS>ATOM
   1 C1           6.7106     3.9514     3.6950 C.3          1    LIG   0.0000
   2 O2           5.5319     3.4194     4.2816 O.3          1    LIG   0.0000
   3 C3           4.4315     3.4446     3.5001 C.ar         1    LIG   0.0000
   4 C4           3.2280     2.9455     3.9868 C.ar         1    LIG   0.0000
   5 C5           2.0906     2.9699     3.1863 C.ar         1    LIG   0.0000
   6 C6           2.1758     3.4982     1.9024 C.ar         1    LIG   0.0000
   7 C7           0.9366     3.5288     1.0225 C.3          1    LIG   0.0000
   8 C8          -0.1481     4.3605     1.6747 C.3          1    LIG   0.0000
   9 C9          -1.3704     3.5270     1.3658 C.2          1    LIG   0.0000
  10 C10         -2.7334     4.0066     1.4857 C.ar         1    LIG   0.0000
  11 C11         -3.7900     3.1529     1.1867 C.ar         1    LIG   0.0000
  12 C12         -5.0963     3.6180     1.3044 C.ar         1    LIG   0.0000
  13 C13         -5.3355     4.9244     1.7170 C.ar         1    LIG   0.0000
  14 C14         -6.6450     5.3789     1.8341 C.ar         1    LIG   0.0000
  15 C15         -6.8753     6.6862     2.2493 C.ar         1    LIG   0.0000
  16 C16         -5.8125     7.5328     2.5443 C.ar         1    LIG   0.0000
  17 C17         -4.5052     7.0730     2.4261 C.ar         1    LIG   0.0000
  18 C18         -4.2687     5.7664     2.0120 C.ar         1    LIG   0.0000
  19 C19         -2.9580     5.3149     1.8999 C.ar         1    LIG   0.0000
  20 N20         -1.0385     2.3609     1.0000 N.2          1    LIG   0.0000
  21 N21          0.2986     2.2149     1.0000 N.am         1    LIG   0.0000
  22 C22          1.0000     1.0000     1.0000 C.2          1    LIG   0.0000
  23 O23          0.4000    -0.0392     1.0000 O.2          1    LIG   0.0000
  24 C24          2.5200     1.0000     1.0000 C.3          1    LIG   0.0000
  25 N25          3.0100    -0.3859     1.0000 N.pl3        1    LIG   0.0000
  26 C26          4.3869    -0.6418     1.0000 C.ar         1    LIG   0.0000
  27 C27          5.2366     0.2747     0.3886 C.ar         1    LIG   0.0000
  28 C28          6.6091     0.0480     0.3734 C.ar         1    LIG   0.0000
  29 C29          7.1321    -1.0957     0.9680 C.ar         1    LIG   0.0000
  30 C30          6.2823    -2.0133     1.5784 C.ar         1    LIG   0.0000
  31 C31          4.9098    -1.7865     1.5946 C.ar         1    LIG   0.0000
  32 C32          4.0244    -2.7427     2.2308 C.2          1    LIG   0.0000
  33 N33          4.5396    -3.8693     2.8160 N.am         1    LIG   0.0000
  34 O34          2.8405    -2.5471     2.2448 O.2          1    LIG   0.0000
  35 C35          3.3796     3.9971     1.4158 C.ar         1    LIG   0.0000
  36 C36          4.5171     3.9725     2.2162 C.ar         1    LIG   0.0000
  37 H            1.1465     3.8533     0.1001 H            1    LIG   0.0000
  38 H            7.4655     3.8883     4.3477 H            1    LIG   0.0000
  39 H            6.9373     3.4310     2.8717 H            1    LIG   0.0000
  40 H            6.5589     4.9096     3.4524 H            1    LIG   0.0000
  41 H            3.1803     2.5691     4.9121 H            1    LIG   0.0000
  42 H            1.2223     2.6119     3.5296 H            1    LIG   0.0000
  43 H           -0.0020     4.4481     2.6601 H            1    LIG   0.0000
  44 H           -0.2103     5.2705     1.2648 H            1    LIG   0.0000
  45 H           -3.6127     2.2145     0.8902 H            1    LIG   0.0000
  46 H           -5.8634     3.0125     1.0923 H            1    LIG   0.0000
  47 H           -7.4117     4.7729     1.6222 H            1    LIG   0.0000
  48 H           -7.8138     7.0203     2.3365 H            1    LIG   0.0000
  49 H           -5.9880     8.4715     2.8412 H            1    LIG   0.0000
  50 H           -3.7386     7.6792     2.6379 H            1    LIG   0.0000
  51 H           -2.1911     5.9202     2.1132 H            1    LIG   0.0000
  52 H            2.8533     1.4714     0.1835 H            1    LIG   0.0000
  53 H            2.8533     1.4714     1.8165 H            1    LIG   0.0000
  54 H            2.3602    -1.1460     1.0000 H            1    LIG   0.0000
  55 H            4.8607     1.0963    -0.0400 H            1    LIG   0.0000
  56 H            7.2199     0.7074    -0.0650 H            1    LIG   0.0000
  57 H            8.1187    -1.2585     0.9569 H            1    LIG   0.0000
  58 H            6.6582    -2.8358     2.0053 H            1    LIG   0.0000
  59 H            5.5261    -4.0322     2.8043 H            1    LIG   0.0000
  60 H            3.9290    -4.5286     3.2547 H            1    LIG   0.0000
  61 H            3.4274     4.3735     0.4906 H            1    LIG   0.0000
  62 H            5.3856     4.3299     1.8727 H            1    LIG   0.0000
@<TRIPOS>BOND
   1        1        2 1
   2        2        3 1
   3        3        4 ar
   4        4        5 ar
   5        5        6 ar
   6        6        7 1
   7        7        8 1
   8        8        9 1
   9        9       10 1
  10       10       11 ar
  11       11       12 ar
  12       12       13 ar
  13       13       14 ar
  14       14       15 ar
  15       15       16 ar
  16       16       17 ar
  17       17       18 ar
  18       18       13 ar
  19       18       19 ar
  20       19       10 ar
  21        9       20 2
  22       20       21 1
  23       21        7 1
  24       21       22 am
  25       22       23 2
  26       22       24 1
  27       24       25 1
  28       25       26 1
  29       26       27 ar
  30       27       28 ar
  31       28       29 ar
  32       29       30 ar
  33       30       31 ar
  34       31       26 ar
  35       31       32 1
  36       32       33 am
  37       32       34 2
  38        6       35 ar
  39       35       36 ar
  40       36        3 ar
  41        7       37 1
  42        1       38 1
  43        1       39 1
  44        1       40 1
  45        4       41 1
  46        5       42 1
  47        8       43 1
  48        8       44 1
  49       11       45 1
  50       12       46 1
  51       14       47 1
  52       15       48 1
  53       16       49 1
  54       17       50 1
  55       19       51 1
  56       24       52 1
  57       24       53 1
  58       25       54 1
  59       27       55 1
  60       28       56 1
  61       29       57 1
  62       30       58 1
  63       33       59 1
  64       33       60 1
  65       35       61 1
  66       36       62 1

@<TRIPOS>MOLECULE

  62   66
SMALL
USER_CHARGES
@<TRIPOS>ATOM
   1 C1           1.1091     6.8547     6.4458 C.3          1    LIG   0.0000
   2 O2           1.5890     5.5360     6.2289 O.3          1    LIG   0.0000
   3 C3           1.4285     5.0577     4.9768 C.ar         1    LIG   0.0000
   4 C4           1.8671     3.7748     4.6667 C.ar         1    LIG   0.0000
   5 C5           1.7034     3.2766     3.3783 C.ar         1    LIG   0.0000
   6 C6           1.0980     4.0753     2.4138 C.ar         1    LIG   0.0000
   7 C7           0.9151     3.5368     1.0040 C.3          1    LIG   0.0000
   8 C8          -0.1440     4.2718     0.2144 C.3          1    LIG   0.0000
   9 C9          -1.3846     3.4805     0.5774 C.2          1    LIG   0.0000
  10 C10         -2.7481     3.9590     0.4596 C.ar         1    LIG   0.0000
  11 C11         -2.9859     5.2411    -0.0246 C.ar         1    LIG   0.0000
  12 C12         -4.2966     5.6952    -0.1366 C.ar         1    LIG   0.0000
  13 C13         -5.3530     4.8701     0.2341 C.ar         1    LIG   0.0000
  14 C14         -6.6597     5.3325     0.1158 C.ar         1    LIG   0.0000
  15 C15         -7.7104     4.5001     0.4867 C.ar         1    LIG   0.0000
  16 C16         -7.4628     3.2206     0.9714 C.ar         1    LIG   0.0000
  17 C17         -6.1544     2.7633     1.0870 C.ar         1    LIG   0.0000
  18 C18         -5.0995     3.5909     0.7169 C.ar         1    LIG   0.0000
  19 C19         -3.7949     3.1234     0.8333 C.ar         1    LIG   0.0000
  20 N20         -1.0414     2.3414     1.0000 N.2          1    LIG   0.0000
  21 N21          0.2988     2.2145     1.0000 N.am         1    LIG   0.0000
  22 C22          1.0000     1.0000     1.0000 C.2          1    LIG   0.0000
  23 O23          0.4000    -0.0392     1.0000 O.2          1    LIG   0.0000
  24 C24          2.5200     1.0000     1.0000 C.3          1    LIG   0.0000
  25 N25          3.0100    -0.3859     1.0000 N.pl3        1    LIG   0.0000
  26 C26          4.3869    -0.6418     1.0000 C.ar         1    LIG   0.0000
  27 C27          5.1553    -0.1627     2.0563 C.ar         1    LIG   0.0000
  28 C28          6.5255    -0.4020     2.0843 C.ar         1    LIG   0.0000
  29 C29          7.1278    -1.1187     1.0554 C.ar         1    LIG   0.0000
  30 C30          6.3597    -1.5968    -0.0021 C.ar         1    LIG   0.0000
  31 C31          4.9894    -1.3586    -0.0299 C.ar         1    LIG   0.0000
  32 C32          4.1890    -1.8570    -1.1317 C.2          1    LIG   0.0000
  33 N33          4.7824    -2.5624    -2.1452 N.am         1    LIG   0.0000
  34 O34          3.0070    -1.6515    -1.1558 O.2          1    LIG   0.0000
  35 C35          0.6596     5.3584     2.7242 C.ar         1    LIG   0.0000
  36 C36          0.8235     5.8568     4.0124 C.ar         1    LIG   0.0000
  37 H            1.7848     3.5264     0.5106 H            1    LIG   0.0000
  38 H            1.2726     7.1167     7.3970 H            1    LIG   0.0000
  39 H            1.5886     7.4881     5.8385 H            1    LIG   0.0000
  40 H            0.1280     6.8880     6.2549 H            1    LIG   0.0000
  41 H            2.3001     3.2107     5.3698 H            1    LIG   0.0000
  42 H            2.0172     2.3554     3.1483 H            1    LIG   0.0000
  43 H           -0.2205     5.2260     0.5036 H            1    LIG   0.0000
  44 H            0.0397     4.2349    -0.7679 H            1    LIG   0.0000
  45 H           -2.2227     5.8305    -0.2895 H            1    LIG   0.0000
  46 H           -4.4788     6.6151    -0.4838 H            1    LIG   0.0000
  47 H           -6.8414     6.2523    -0.2319 H            1    LIG   0.0000
  48 H           -8.6526     4.8249     0.4042 H            1    LIG   0.0000
  49 H           -8.2248     2.6298     1.2365 H            1    LIG   0.0000
  50 H           -5.9729     1.8435     1.4348 H            1    LIG   0.0000
  51 H           -3.6129     2.2030     1.1793 H            1    LIG   0.0000
  52 H            2.8533     1.4714     0.1835 H            1    LIG   0.0000
  53 H            2.8533     1.4714     1.8165 H            1    LIG   0.0000
  54 H            2.3602    -1.1460     1.0000 H            1    LIG   0.0000
  55 H            4.7227     0.3536     2.7954 H            1    LIG   0.0000
  56 H            7.0775    -0.0587     2.8442 H            1    LIG   0.0000
  57 H            8.1127    -1.2905     1.0756 H            1    LIG   0.0000
  58 H            6.7928    -2.1115    -0.7420 H            1    LIG   0.0000
  59 H            5.7675    -2.7337    -2.1251 H            1    LIG   0.0000
  60 H            4.2306    -2.9061    -2.9050 H            1    LIG   0.0000
  61 H            0.2266     5.9225     2.0211 H            1    LIG   0.0000
  62 H            0.5103     6.7783     4.2424 H            1    LIG   0.0000
@<TRIPOS>BOND
   1        1        2 1
   2        2        3 1
   3        3        4 ar
   4        4        5 ar
   5        5        6 ar
   6        6        7 1
   7        7        8 1
   8        8        9 1
   9        9       10 1
  10       10       11 ar
  11       11       12 ar
  12       12       13 ar
  13       13       14 ar
  14       14       15 ar
  15       15       16 ar
  16       16       17 ar
  17       17       18 ar
  18       18       13 ar
  19       18       19 ar
  20       19       10 ar
  21        9       20 2
  22       20       21 1
  23       21        7 1
  24       21       22 am
  25       22       23 2
  26       22       24 1
  27       24       25 1
  28       25       26 1
  29       26       27 ar
  30       27       28 ar
  31       28       29 ar
  32       29       30 ar
  33       30       31 ar
  34       31       26 ar
  35       31       32 1
  36       32       33 am
  37       32       34 2
  38        6       35 ar
  39       35       36 ar
  40       36        3 ar
  41        7       37 1
  42        1       38 1
  43        1       39 1
  44        1       40 1
  45        4       41 1
  46        5       42 1
  47        8       43 1
  48        8       44 1
  49       11       45 1
  50       12       46 1
  51       14       47 1
  52       15       48 1
  53       16       49 1
  54       17       50 1
  55       19       51 1
  56       24       52 1
  57       24       53 1
  58       25       54 1
  59       27       55 1
  60       28       56 1
  61       29       57 1
  62       30       58 1
  63       33       59 1
  64       33       60 1
  65       35       61 1
  66       36       62 1

@<TRIPOS>MOLECULE

  62   66
SMALL
USER_CHARGES
@<TRIPOS>ATOM
   1 C1           1.1091     6.8547     6.4458 C.3          1    LIG   0.0000
   2 O2           1.5890     5.5360     6.2289 O.3          1    LIG   0.0000
   3 C3           1.4285     5.0577     4.9768 C.ar         1    LIG   0.0000
   4 C4           1.8671     3.7748     4.6667 C.ar         1    LIG   0.0000
   5 C5           1.7034     3.2766     3.3783 C.ar         1    LIG   0.0000
   6 C6           1.0980     4.0753     2.4138 C.ar         1    LIG   0.0000
   7 C7           0.9151     3.5368     1.0040 C.3          1    LIG   0.0000
   8 C8          -0.1440     4.2718     0.2144 C.3          1    LIG   0.0000
   9 C9          -1.3846     3.4805     0.5774 C.2          1    LIG   0.0000
  10 C10         -2.7481     3.9590     0.4596 C.ar         1    LIG   0.0000
  11 C11         -3.8009     3.1299     0.8323 C.ar         1    LIG   0.0000
  12 C12         -5.1077     3.5944     0.7182 C.ar         1    LIG   0.0000
  13 C13         -5.3512     4.8757     0.2353 C.ar         1    LIG   0.0000
  14 C14         -6.6610     5.3317     0.1276 C.ar         1    LIG   0.0000
  15 C15         -6.8954     6.6151    -0.3544 C.ar         1    LIG   0.0000
  16 C16         -5.8367     7.4361    -0.7262 C.ar         1    LIG   0.0000
  17 C17         -4.5291     6.9753    -0.6159 C.ar         1    LIG   0.0000
  18 C18         -4.2883     5.6930    -0.1339 C.ar         1    LIG   0.0000
  19 C19         -2.9771     5.2424    -0.0242 C.ar         1    LIG   0.0000
  20 N20         -1.0414     2.3414     1.0000 N.2          1    LIG   0.0000
  21 N21          0.2988     2.2145     1.0000 N.am         1    LIG   0.0000
  22 C22          1.0000     1.0000     1.0000 C.2          1    LIG   0.0000
  23 O23          0.4000    -0.0392     1.0000 O.2          1    LIG   0.0000
  24 C24          2.5200     1.0000     1.0000 C.3          1    LIG   0.0000
  25 N25          3.0100    -0.3859     1.0000 N.pl3        1    LIG   0.0000
  26 C26          4.3869    -0.6418     1.0000 C.ar         1    LIG   0.0000
  27 C27          5.1553    -0.1627     2.0563 C.ar         1    LIG   0.0000
  28 C28          6.5255    -0.4020     2.0843 C.ar         1    LIG   0.0000
  29 C29          7.1278    -1.1187     1.0554 C.ar         1    LIG   0.0000
  30 C30          6.3597    -1.5968    -0.0021 C.ar         1    LIG   0.0000
  31 C31          4.9894    -1.3586    -0.0299 C.ar         1    LIG   0.0000
  32 C32          4.1890    -1.8570    -1.1317 C.2          1    LIG   0.0000
  33 N33          4.7824    -2.5624    -2.1452 N.am         1    LIG   0.0000
  34 O34          3.0070    -1.6515    -1.1558 O.2          1    LIG   0.0000
  35 C35          0.6596     5.3584     2.7242 C.ar         1    LIG   0.0000
  36 C36          0.8235     5.8568     4.0124 C.ar         1    LIG   0.0000
  37 H            1.7848     3.5264     0.5106 H            1    LIG   0.0000
  38 H            1.2726     7.1167     7.3970 H            1    LIG   0.0000
  39 H            1.5886     7.4881     5.8385 H            1    LIG   0.0000
  40 H            0.1280     6.8880     6.2549 H            1    LIG   0.0000
  41 H            2.3001     3.2107     5.3698 H            1    LIG   0.0000
  42 H            2.0172     2.3554     3.1483 H            1    LIG   0.0000
  43 H           -0.2205     5.2260     0.5036 H            1    LIG   0.0000
  44 H            0.0397     4.2349    -0.7679 H            1    LIG   0.0000
  45 H           -3.6205     2.2093     1.1787 H            1    LIG   0.0000
  46 H           -5.8720     3.0067     0.9836 H            1    LIG   0.0000
  47 H           -7.4249     4.7437     0.3935 H            1    LIG   0.0000
  48 H           -7.8341     6.9505    -0.4343 H            1    LIG   0.0000
  49 H           -6.0152     8.3570    -1.0726 H            1    LIG   0.0000
  50 H           -3.7653     7.5634    -0.8820 H            1    LIG   0.0000
  51 H           -2.2129     5.8307    -0.2886 H            1    LIG   0.0000
  52 H            2.8533     1.4714     0.1835 H            1    LIG   0.0000
  53 H            2.8533     1.4714     1.8165 H            1    LIG   0.0000
  54 H            2.3602    -1.1460     1.0000 H            1    LIG   0.0000
  55 H            4.7227     0.3536     2.7954 H            1    LIG   0.0000
  56 H            7.0775    -0.0587     2.8442 H            1    LIG   0.0000
  57 H            8.1127    -1.2905     1.0756 H            1    LIG   0.0000
  58 H            6.7928    -2.1115    -0.7420 H            1    LIG   0.0000
  59 H            5.7675    -2.7337    -2.1251 H            1    LIG   0.0000
  60 H            4.2306    -2.9061    -2.9050 H            1    LIG   0.0000
  61 H            0.2266     5.9225     2.0211 H            1    LIG   0.0000
  62 H            0.5103     6.7783     4.2424 H            1    LIG   0.0000
@<TRIPOS>BOND
   1        1        2 1
   2        2        3 1
   3        3        4 ar
   4        4        5 ar
   5        5        6 ar
   6        6        7 1
   7        7        8 1
   8        8        9 1
   9        9       10 1
  10       10       11 ar
  11       11       12 ar
  12       12       13 ar
  13       13       14 ar
  14       14       15 ar
  15       15       16 ar
  16       16       17 ar
  17       17       18 ar
  18       18       13 ar
  19       18       19 ar
  20       19       10 ar
  21        9       20 2
  22       20       21 1
  23       21        7 1
  24       21       22 am
  25       22       23 2
  26       22       24 1
  27       24       25 1
  28       25       26 1
  29       26       27 ar
  30       27       28 ar
  31       28       29 ar
  32       29       30 ar
  33       30       31 ar
  34       31       26 ar
  35       31       32 1
  36       32       33 am
  37       32       34 2
  38        6       35 ar
  39       35       36 ar
  40       36        3 ar
  41        7       37 1
  42        1       38 1
  43        1       39 1
  44        1       40 1
  45        4       41 1
  46        5       42 1
  47        8       43 1
  48        8       44 1
  49       11       45 1
  50       12       46 1
  51       14       47 1
  52       15       48 1
  53       16       49 1
  54       17       50 1
  55       19       51 1
  56       24       52 1
  57       24       53 1
  58       25       54 1
  59       27       55 1
  60       28       56 1
  61       29       57 1
  62       30       58 1
  63       33       59 1
  64       33       60 1
  65       35       61 1
  66       36       62 1

@<TRIPOS>MOLECULE

  62   66
SMALL
USER_CHARGES
@<TRIPOS>ATOM
   1 C1           0.5171     5.2742     7.1263 C.3          1    LIG   0.0000
   2 O2           1.5898     5.5290     6.2315 O.3          1    LIG   0.0000
   3 C3           1.4274     5.0527     4.9789 C.ar         1    LIG   0.0000
   4 C4           2.4243     5.2526     4.0299 C.ar         1    LIG   0.0000
   5 C5           2.2627     4.7631     2.7379 C.ar         1    LIG   0.0000
   6 C6           1.0980     4.0753     2.4138 C.ar         1    LIG   0.0000
   7 C7           0.9151     3.5368     1.0040 C.3          1    LIG   0.0000
   8 C8          -0.1440     4.2718     0.2144 C.3          1    LIG   0.0000
   9 C9          -1.3846     3.4805     0.5774 C.2          1    LIG   0.0000
  10 C10         -2.7481     3.9590     0.4596 C.ar         1    LIG   0.0000
  11 C11         -2.9859     5.2411    -0.0246 C.ar         1    LIG   0.0000
  12 C12         -4.2966     5.6952    -0.1366 C.ar         1    LIG   0.0000
  13 C13         -5.3530     4.8701     0.2341 C.ar         1    LIG   0.0000
  14 C14         -6.6597     5.3325     0.1158 C.ar         1    LIG   0.0000
  15 C15         -7.7104     4.5001     0.4867 C.ar         1    LIG   0.0000
  16 C16         -7.4628     3.2206     0.9714 C.ar         1    LIG   0.0000
  17 C17         -6.1544     2.7633     1.0870 C.ar         1    LIG   0.0000
  18 C18         -5.0995     3.5909     0.7169 C.ar         1    LIG   0.0000
  19 C19         -3.7949     3.1234     0.8333 C.ar         1    LIG   0.0000
  20 N20         -1.0414     2.3414     1.0000 N.2          1    LIG   0.0000
  21 N21          0.2988     2.2145     1.0000 N.am         1    LIG   0.0000
  22 C22          1.0000     1.0000     1.0000 C.2          1    LIG   0.0000
  23 O23          0.4000    -0.0392     1.0000 O.2          1    LIG   0.0000
  24 C24          2.5200     1.0000     1.0000 C.3          1    LIG   0.0000
  25 N25          3.0100    -0.3859     1.0000 N.pl3        1    LIG   0.0000
  26 C26          3.2434    -1.0461    -0.2129 C.ar         1    LIG   0.0000
  27 C27          2.4733    -0.7023    -1.3195 C.ar         1    LIG   0.0000
  28 C28          2.6828    -1.3402    -2.5379 C.ar         1    LIG   0.0000
  29 C29          3.6609    -2.3229    -2.6498 C.ar         1    LIG   0.0000
  30 C30          4.4303    -2.6681    -1.5426 C.ar         1    LIG   0.0000
  31 C31          4.2218    -2.0298    -0.3243 C.ar         1    LIG   0.0000
  32 C32          5.0238    -2.3894     0.8292 C.2          1    LIG   0.0000
  33 N33          5.9868    -3.3576     0.7190 N.am         1    LIG   0.0000
  34 O34          4.8440    -1.8388     1.8802 O.2          1    LIG   0.0000
  35 C35          0.1010     3.8757     3.3630 C.ar         1    LIG   0.0000
  36 C36          0.2624     4.3654     4.6549 C.ar         1    LIG   0.0000
  37 H            1.7848     3.5264     0.5106 H            1    LIG   0.0000
  38 H            0.7307     5.6636     8.0223 H            1    LIG   0.0000
  39 H           -0.3192     5.6923     6.7719 H            1    LIG   0.0000
  40 H            0.3845     4.2870     7.2151 H            1    LIG   0.0000
  41 H            3.2572     5.7482     4.2764 H            1    LIG   0.0000
  42 H            2.9751     4.9040     2.0505 H            1    LIG   0.0000
  43 H           -0.2205     5.2260     0.5036 H            1    LIG   0.0000
  44 H            0.0397     4.2349    -0.7679 H            1    LIG   0.0000
  45 H           -2.2227     5.8305    -0.2895 H            1    LIG   0.0000
  46 H           -4.4788     6.6151    -0.4838 H            1    LIG   0.0000
  47 H           -6.8414     6.2523    -0.2319 H            1    LIG   0.0000
  48 H           -8.6526     4.8249     0.4042 H            1    LIG   0.0000
  49 H           -8.2248     2.6298     1.2365 H            1    LIG   0.0000
  50 H           -5.9729     1.8435     1.4348 H            1    LIG   0.0000
  51 H           -3.6129     2.2030     1.1793 H            1    LIG   0.0000
  52 H            2.8533     1.4714     0.1835 H            1    LIG   0.0000
  53 H            2.8533     1.4714     1.8165 H            1    LIG   0.0000
  54 H            3.1767    -0.8573     1.8660 H            1    LIG   0.0000
  55 H            1.7693     0.0033    -1.2390 H            1    LIG   0.0000
  56 H            2.1301    -1.0921    -3.3335 H            1    LIG   0.0000
  57 H            3.8112    -2.7814    -3.5257 H            1    LIG   0.0000
  58 H            5.1330    -3.3750    -1.6229 H            1    LIG   0.0000
  59 H            6.1366    -3.8164    -0.1568 H            1    LIG   0.0000
  60 H            6.5398    -3.6056     1.5144 H            1    LIG   0.0000
  61 H           -0.7319     3.3801     3.1166 H            1    LIG   0.0000
  62 H           -0.4503     4.2251     5.3422 H            1    LIG   0.0000
@<TRIPOS>BOND
   1        1        2 1
   2        2        3 1
   3        3        4 ar
   4        4        5 ar
   5        5        6 ar
   6        6        7 1
   7        7        8 1
   8        8        9 1
   9        9       10 1
  10       10       11 ar
  11       11       12 ar
  12       12       13 ar
  13       13       14 ar
  14       14       15 ar
  15       15       16 ar
  16       16       17 ar
  17       17       18 ar
  18       18       13 ar
  19       18       19 ar
  20       19       10 ar
  21        9       20 2
  22       20       21 1
  23       21        7 1
  24       21       22 am
  25       22       23 2
  26       22       24 1
  27       24       25 1
  28       25       26 1
  29       26       27 ar
  30       27       28 ar
  31       28       29 ar
  32       29       30 ar
  33       30       31 ar
  34       31       26 ar
  35       31       32 1
  36       32       33 am
  37       32       34 2
  38        6       35 ar
  39       35       36 ar
  40       36        3 ar
  41        7       37 1
  42        1       38 1
  43        1       39 1
  44        1       40 1
  45        4       41 1
  46        5       42 1
  47        8       43 1
  48        8       44 1
  49       11       45 1
  50       12       46 1
  51       14       47 1
  52       15       48 1
  53       16       49 1
  54       17       50 1
  55       19       51 1
  56       24       52 1
  57       24       53 1
  58       25       54 1
  59       27       55 1
  60       28       56 1
  61       29       57 1
  62       30       58 1
  63       33       59 1
  64       33       60 1
  65       35       61 1
  66       36       62 1

@<TRIPOS>MOLECULE

  62   66
SMALL
USER_CHARGES
@<TRIPOS>ATOM
   1 C1           0.5171     5.2742     7.1263 C.3          1    LIG   0.0000
   2 O2           1.5898     5.5290     6.2315 O.3          1    LIG   0.0000
   3 C3           1.4274     5.0527     4.9789 C.ar         1    LIG   0.0000
   4 C4           2.4243     5.2526     4.0299 C.ar         1    LIG   0.0000
   5 C5           2.2627     4.7631     2.7379 C.ar         1    LIG   0.0000
   6 C6           1.0980     4.0753     2.4138 C.ar         1    LIG   0.0000
   7 C7           0.9151     3.5368     1.0040 C.3          1    LIG   0.0000
   8 C8          -0.1440     4.2718     0.2144 C.3          1    LIG   0.0000
   9 C9          -1.3846     3.4805     0.5774 C.2          1    LIG   0.0000
  10 C10         -2.7481     3.9590     0.4596 C.ar         1    LIG   0.0000
  11 C11         -3.8009     3.1299     0.8323 C.ar         1    LIG   0.0000
  12 C12         -5.1077     3.5944     0.7182 C.ar         1    LIG   0.0000
  13 C13         -5.3512     4.8757     0.2353 C.ar         1    LIG   0.0000
  14 C14         -6.6610     5.3317     0.1276 C.ar         1    LIG   0.0000
  15 C15         -6.8954     6.6151    -0.3544 C.ar         1    LIG   0.0000
  16 C16         -5.8367     7.4361    -0.7262 C.ar         1    LIG   0.0000
  17 C17         -4.5291     6.9753    -0.6159 C.ar         1    LIG   0.0000
  18 C18         -4.2883     5.6930    -0.1339 C.ar         1    LIG   0.0000
  19 C19         -2.9771     5.2424    -0.0242 C.ar         1    LIG   0.0000
  20 N20         -1.0414     2.3414     1.0000 N.2          1    LIG   0.0000
  21 N21          0.2988     2.2145     1.0000 N.am         1    LIG   0.0000
  22 C22          1.0000     1.0000     1.0000 C.2          1    LIG   0.0000
  23 O23          0.4000    -0.0392     1.0000 O.2          1    LIG   0.0000
  24 C24          2.5200     1.0000     1.0000 C.3          1    LIG   0.0000
  25 N25          3.0100    -0.3859     1.0000 N.pl3        1    LIG   0.0000
  26 C26          3.2434    -1.0461    -0.2129 C.ar         1    LIG   0.0000
  27 C27          2.4733    -0.7023    -1.3195 C.ar         1    LIG   0.0000
  28 C28          2.6828    -1.3402    -2.5379 C.ar         1    LIG   0.0000
  29 C29          3.6609    -2.3229    -2.6498 C.ar         1    LIG   0.0000
  30 C30          4.4303    -2.6681    -1.5426 C.ar         1    LIG   0.0000
  31 C31          4.2218    -2.0298    -0.3243 C.ar         1    LIG   0.0000
  32 C32          5.0238    -2.3894     0.8292 C.2          1    LIG   0.0000
  33 N33          5.9868    -3.3576     0.7190 N.am         1    LIG   0.0000
  34 O34          4.8440    -1.8388     1.8802 O.2          1    LIG   0.0000
  35 C35          0.1010     3.8757     3.3630 C.ar         1    LIG   0.0000
  36 C36          0.2624     4.3654     4.6549 C.ar         1    LIG   0.0000
  37 H            1.7848     3.5264     0.5106 H            1    LIG   0.0000
  38 H            0.7307     5.6636     8.0223 H            1    LIG   0.0000
  39 H           -0.3192     5.6923     6.7719 H            1    LIG   0.0000
  40 H            0.3845     4.2870     7.2151 H            1    LIG   0.0000
  41 H            3.2572     5.7482     4.2764 H            1    LIG   0.0000
  42 H            2.9751     4.9040     2.0505 H            1    LIG   0.0000
  43 H           -0.2205     5.2260     0.5036 H            1    LIG   0.0000
  44 H            0.0397     4.2349    -0.7679 H            1    LIG   0.0000
  45 H           -3.6205     2.2093     1.1787 H            1    LIG   0.0000
  46 H           -5.8720     3.0067     0.9836 H            1    LIG   0.0000
  47 H           -7.4249     4.7437     0.3935 H            1    LIG   0.0000
  48 H           -7.8341     6.9505    -0.4343 H            1    LIG   0.0000
  49 H           -6.0152     8.3570    -1.0726 H            1    LIG   0.0000
  50 H           -3.7653     7.5634    -0.8820 H            1    LIG   0.0000
  51 H           -2.2129     5.8307    -0.2886 H            1    LIG   0.0000
  52 H            2.8533     1.4714     0.1835 H            1    LIG   0.0000
  53 H            2.8533     1.4714     1.8165 H            1    LIG   0.0000
  54 H            3.1767    -0.8573     1.8660 H            1    LIG   0.0000
  55 H            1.7693     0.0033    -1.2390 H            1    LIG   0.0000
  56 H            2.1301    -1.0921    -3.3335 H            1    LIG   0.0000
  57 H            3.8112    -2.7814    -3.5257 H            1    LIG   0.0000
  58 H            5.1330    -3.3750    -1.6229 H            1    LIG   0.0000
  59 H            6.1366    -3.8164    -0.1568 H            1    LIG   0.0000
  60 H            6.5398    -3.6056     1.5144 H            1    LIG   0.0000
  61 H           -0.7319     3.3801     3.1166 H            1    LIG   0.0000
  62 H           -0.4503     4.2251     5.3422 H            1    LIG   0.0000
@<TRIPOS>BOND
   1        1        2 1
   2        2        3 1
   3        3        4 ar
   4        4        5 ar
   5        5        6 ar
   6        6        7 1
   7        7        8 1
   8        8        9 1
   9        9       10 1
  10       10       11 ar
  11       11       12 ar
  12       12       13 ar
  13       13       14 ar
  14       14       15 ar
  15       15       16 ar
  16       16       17 ar
  17       17       18 ar
  18       18       13 ar
  19       18       19 ar
  20       19       10 ar
  21        9       20 2
  22       20       21 1
  23       21        7 1
  24       21       22 am
  25       22       23 2
  26       22       24 1
  27       24       25 1
  28       25       26 1
  29       26       27 ar
  30       27       28 ar
  31       28       29 ar
  32       29       30 ar
  33       30       31 ar
  34       31       26 ar
  35       31       32 1
  36       32       33 am
  37       32       34 2
  38        6       35 ar
  39       35       36 ar
  40       36        3 ar
  41        7       37 1
  42        1       38 1
  43        1       39 1
  44        1       40 1
  45        4       41 1
  46        5       42 1
  47        8       43 1
  48        8       44 1
  49       11       45 1
  50       12       46 1
  51       14       47 1
  52       15       48 1
  53       16       49 1
  54       17       50 1
  55       19       51 1
  56       24       52 1
  57       24       53 1
  58       25       54 1
  59       27       55 1
  60       28       56 1
  61       29       57 1
  62       30       58 1
  63       33       59 1
  64       33       60 1
  65       35       61 1
  66       36       62 1

@<TRIPOS>MOLECULE

  62   66
SMALL
USER_CHARGES
@<TRIPOS>ATOM
   1 C1           6.7106     3.9514     3.6950 C.3          1    LIG   0.0000
   2 O2           5.5319     3.4194     4.2816 O.3          1    LIG   0.0000
   3 C3           4.4315     3.4446     3.5001 C.ar         1    LIG   0.0000
   4 C4           3.2280     2.9455     3.9868 C.ar         1    LIG   0.0000
   5 C5           2.0906     2.9699     3.1863 C.ar         1    LIG   0.0000
   6 C6           2.1758     3.4982     1.9024 C.ar         1    LIG   0.0000
   7 C7           0.9366     3.5288     1.0225 C.3          1    LIG   0.0000
   8 C8          -0.1481     4.3605     1.6747 C.3          1    LIG   0.0000
   9 C9          -1.3704     3.5270     1.3658 C.2          1    LIG   0.0000
  10 C10         -2.7334     4.0066     1.4857 C.ar         1    LIG   0.0000
  11 C11         -2.9668     5.3143     1.8982 C.ar         1    LIG   0.0000
  12 C12         -4.2768     5.7701     2.0107 C.ar         1    LIG   0.0000
  13 C13         -5.3371     4.9209     1.7124 C.ar         1    LIG   0.0000
  14 C14         -6.6430     5.3868     1.8254 C.ar         1    LIG   0.0000
  15 C15         -7.6974     4.5316     1.5232 C.ar         1    LIG   0.0000
  16 C16         -7.4542     3.2255     1.1134 C.ar         1    LIG   0.0000
  17 C17         -6.1466     2.7650     1.0015 C.ar         1    LIG   0.0000
  18 C18         -5.0880     3.6158     1.3017 C.ar         1    LIG   0.0000
  19 C19         -3.7839     3.1471     1.1838 C.ar         1    LIG   0.0000
  20 N20         -1.0385     2.3609     1.0000 N.2          1    LIG   0.0000
  21 N21          0.2986     2.2149     1.0000 N.am         1    LIG   0.0000
  22 C22          1.0000     1.0000     1.0000 C.2          1    LIG   0.0000
  23 O23          0.4000    -0.0392     1.0000 O.2          1    LIG   0.0000
  24 C24          2.5200     1.0000     1.0000 C.3          1    LIG   0.0000
  25 N25          3.0100    -0.3859     1.0000 N.pl3        1    LIG   0.0000
  26 C26          3.2434    -1.0461    -0.2129 C.ar         1    LIG   0.0000
  27 C27          2.4733    -0.7023    -1.3195 C.ar         1    LIG   0.0000
  28 C28          2.6828    -1.3402    -2.5379 C.ar         1    LIG   0.0000
  29 C29          3.6609    -2.3229    -2.6498 C.ar         1    LIG   0.0000
  30 C30          4.4303    -2.6681    -1.5426 C.ar         1    LIG   0.0000
  31 C31          4.2218    -2.0298    -0.3243 C.ar         1    LIG   0.0000
  32 C32          5.0238    -2.3894     0.8292 C.2          1    LIG   0.0000
  33 N33          5.9868    -3.3576     0.7190 N.am         1    LIG   0.0000
  34 O34          4.8440    -1.8388     1.8802 O.2          1    LIG   0.0000
  35 C35          3.3796     3.9971     1.4158 C.ar         1    LIG   0.0000
  36 C36          4.5171     3.9725     2.2162 C.ar         1    LIG   0.0000
  37 H            1.1465     3.8533     0.1001 H            1    LIG   0.0000
  38 H            7.4655     3.8883     4.3477 H            1    LIG   0.0000
  39 H            6.9373     3.4310     2.8717 H            1    LIG   0.0000
  40 H            6.5589     4.9096     3.4524 H            1    LIG   0.0000
  41 H            3.1803     2.5691     4.9121 H            1    LIG   0.0000
  42 H            1.2223     2.6119     3.5296 H            1    LIG   0.0000
  43 H           -0.0020     4.4481     2.6601 H            1    LIG   0.0000
  44 H           -0.2103     5.2705     1.2648 H            1    LIG   0.0000
  45 H           -2.2009     5.9208     2.1118 H            1    LIG   0.0000
  46 H           -4.4559     6.7085     2.3061 H            1    LIG   0.0000
  47 H           -6.8215     6.3255     2.1205 H            1    LIG   0.0000
  48 H           -8.6389     4.8592     1.6014 H            1    LIG   0.0000
  49 H           -8.2189     2.6176     0.8992 H            1    LIG   0.0000
  50 H           -5.9683     1.8263     0.7066 H            1    LIG   0.0000
  51 H           -3.6050     2.2090     0.8872 H            1    LIG   0.0000
  52 H            2.8533     1.4714     0.1835 H            1    LIG   0.0000
  53 H            2.8533     1.4714     1.8165 H            1    LIG   0.0000
  54 H            3.1767    -0.8573     1.8660 H            1    LIG   0.0000
  55 H            1.7693     0.0033    -1.2390 H            1    LIG   0.0000
  56 H            2.1301    -1.0921    -3.3335 H            1    LIG   0.0000
  57 H            3.8112    -2.7814    -3.5257 H            1    LIG   0.0000
  58 H            5.1330    -3.3750    -1.6229 H            1    LIG   0.0000
  59 H            6.1366    -3.8164    -0.1568 H            1    LIG   0.0000
  60 H            6.5398    -3.6056     1.5144 H            1    LIG   0.0000
  61 H            3.4274     4.3735     0.4906 H            1    LIG   0.0000
  62 H            5.3856     4.3299     1.8727 H            1    LIG   0.0000
@<TRIPOS>BOND
   1        1        2 1
   2        2        3 1
   3        3        4 ar
   4        4        5 ar
   5        5        6 ar
   6        6        7 1
   7        7        8 1
   8        8        9 1
   9        9       10 1
  10       10       11 ar
  11       11       12 ar
  12       12       13 ar
  13       13       14 ar
  14       14       15 ar
  15       15       16 ar
  16       16       17 ar
  17       17       18 ar
  18       18       13 ar
  19       18       19 ar
  20       19       10 ar
  21        9       20 2
  22       20       21 1
  23       21        7 1
  24       21       22 am
  25       22       23 2
  26       22       24 1
  27       24       25 1
  28       25       26 1
  29       26       27 ar
  30       27       28 ar
  31       28       29 ar
  32       29       30 ar
  33       30       31 ar
  34       31       26 ar
  35       31       32 1
  36       32       33 am
  37       32       34 2
  38        6       35 ar
  39       35       36 ar
  40       36        3 ar
  41        7       37 1
  42        1       38 1
  43        1       39 1
  44        1       40 1
  45        4       41 1
  46        5       42 1
  47        8       43 1
  48        8       44 1
  49       11       45 1
  50       12       46 1
  51       14       47 1
  52       15       48 1
  53       16       49 1
  54       17       50 1
  55       19       51 1
  56       24       52 1
  57       24       53 1
  58       25       54 1
  59       27       55 1
  60       28       56 1
  61       29       57 1
  62       30       58 1
  63       33       59 1
  64       33       60 1
  65       35       61 1
  66       36       62 1

@<TRIPOS>MOLECULE

  62   66
SMALL
USER_CHARGES
@<TRIPOS>ATOM
   1 C1           6.7106     3.9514     3.6950 C.3          1    LIG   0.0000
   2 O2           5.5319     3.4194     4.2816 O.3          1    LIG   0.0000
   3 C3           4.4315     3.4446     3.5001 C.ar         1    LIG   0.0000
   4 C4           3.2280     2.9455     3.9868 C.ar         1    LIG   0.0000
   5 C5           2.0906     2.9699     3.1863 C.ar         1    LIG   0.0000
   6 C6           2.1758     3.4982     1.9024 C.ar         1    LIG   0.0000
   7 C7           0.9366     3.5288     1.0225 C.3          1    LIG   0.0000
   8 C8          -0.1481     4.3605     1.6747 C.3          1    LIG   0.0000
   9 C9          -1.3704     3.5270     1.3658 C.2          1    LIG   0.0000
  10 C10         -2.7334     4.0066     1.4857 C.ar         1    LIG   0.0000
  11 C11         -3.7900     3.1529     1.1867 C.ar         1    LIG   0.0000
  12 C12         -5.0963     3.6180     1.3044 C.ar         1    LIG   0.0000
  13 C13         -5.3355     4.9244     1.7170 C.ar         1    LIG   0.0000
  14 C14         -6.6450     5.3789     1.8341 C.ar         1    LIG   0.0000
  15 C15         -6.8753     6.6862     2.2493 C.ar         1    LIG   0.0000
  16 C16         -5.8125     7.5328     2.5443 C.ar         1    LIG   0.0000
  17 C17         -4.5052     7.0730     2.4261 C.ar         1    LIG   0.0000
  18 C18         -4.2687     5.7664     2.0120 C.ar         1    LIG   0.0000
  19 C19         -2.9580     5.3149     1.8999 C.ar         1    LIG   0.0000
  20 N20         -1.0385     2.3609     1.0000 N.2          1    LIG   0.0000
  21 N21          0.2986     2.2149     1.0000 N.am         1    LIG   0.0000
  22 C22          1.0000     1.0000     1.0000 C.2          1    LIG   0.0000
  23 O23          0.4000    -0.0392     1.0000 O.2          1    LIG   0.0000
  24 C24          2.5200     1.0000     1.0000 C.3          1    LIG   0.0000
  25 N25          3.0100    -0.3859     1.0000 N.pl3        1    LIG   0.0000
  26 C26          3.2434    -1.0461    -0.2129 C.ar         1    LIG   0.0000
  27 C27          2.4733    -0.7023    -1.3195 C.ar         1    LIG   0.0000
  28 C28          2.6828    -1.3402    -2.5379 C.ar         1    LIG   0.0000
  29 C29          3.6609    -2.3229    -2.6498 C.ar         1    LIG   0.0000
  30 C30          4.4303    -2.6681    -1.5426 C.ar         1    LIG   0.0000
  31 C31          4.2218    -2.0298    -0.3243 C.ar         1    LIG   0.0000
  32 C32          5.0238    -2.3894     0.8292 C.2          1    LIG   0.0000
  33 N33          5.9868    -3.3576     0.7190 N.am         1    LIG   0.0000
  34 O34          4.8440    -1.8388     1.8802 O.2          1    LIG   0.0000
  35 C35          3.3796     3.9971     1.4158 C.ar         1    LIG   0.0000
  36 C36          4.5171     3.9725     2.2162 C.ar         1    LIG   0.0000
  37 H            1.1465     3.8533     0.1001 H            1    LIG   0.0000
  38 H            7.4655     3.8883     4.3477 H            1    LIG   0.0000
  39 H            6.9373     3.4310     2.8717 H            1    LIG   0.0000
  40 H            6.5589     4.9096     3.4524 H            1    LIG   0.0000
  41 H            3.1803     2.5691     4.9121 H            1    LIG   0.0000
  42 H            1.2223     2.6119     3.5296 H            1    LIG   0.0000
  43 H           -0.0020     4.4481     2.6601 H            1    LIG   0.0000
  44 H           -0.2103     5.2705     1.2648 H            1    LIG   0.0000
  45 H           -3.6127     2.2145     0.8902 H            1    LIG   0.0000
  46 H           -5.8634     3.0125     1.0923 H            1    LIG   0.0000
  47 H           -7.4117     4.7729     1.6222 H            1    LIG   0.0000
  48 H           -7.8138     7.0203     2.3365 H            1    LIG   0.0000
  49 H           -5.9880     8.4715     2.8412 H            1    LIG   0.0000
  50 H           -3.7386     7.6792     2.6379 H            1    LIG   0.0000
  51 H           -2.1911     5.9202     2.1132 H            1    LIG   0.0000
  52 H            2.8533     1.4714     0.1835 H            1    LIG   0.0000
  53 H            2.8533     1.4714     1.8165 H            1    LIG   0.0000
  54 H            3.1767    -0.8573     1.8660 H            1    LIG   0.0000
  55 H            1.7693     0.0033    -1.2390 H            1    LIG   0.0000
  56 H            2.1301    -1.0921    -3.3335 H            1    LIG   0.0000
  57 H            3.8112    -2.7814    -3.5257 H            1    LIG   0.0000
  58 H            5.1330    -3.3750    -1.6229 H            1    LIG   0.0000
  59 H            6.1366    -3.8164    -0.1568 H            1    LIG   0.0000
  60 H            6.5398    -3.6056     1.5144 H            1    LIG   0.0000
  61 H            3.4274     4.3735     0.4906 H            1    LIG   0.0000
  62 H            5.3856     4.3299     1.8727 H            1    LIG   0.0000
@<TRIPOS>BOND
   1        1        2 1
   2        2        3 1
   3        3        4 ar
   4        4        5 ar
   5        5        6 ar
   6        6        7 1
   7        7        8 1
   8        8        9 1
   9        9       10 1
  10       10       11 ar
  11       11       12 ar
  12       12       13 ar
  13       13       14 ar
  14       14       15 ar
  15       15       16 ar
  16       16       17 ar
  17       17       18 ar
  18       18       13 ar
  19       18       19 ar
  20       19       10 ar
  21        9       20 2
  22       20       21 1
  23       21        7 1
  24       21       22 am
  25       22       23 2
  26       22       24 1
  27       24       25 1
  28       25       26 1
  29       26       27 ar
  30       27       28 ar
  31       28       29 ar
  32       29       30 ar
  33       30       31 ar
  34       31       26 ar
  35       31       32 1
  36       32       33 am
  37       32       34 2
  38        6       35 ar
  39       35       36 ar
  40       36        3 ar
  41        7       37 1
  42        1       38 1
  43        1       39 1
  44        1       40 1
  45        4       41 1
  46        5       42 1
  47        8       43 1
  48        8       44 1
  49       11       45 1
  50       12       46 1
  51       14       47 1
  52       15       48 1
  53       16       49 1
  54       17       50 1
  55       19       51 1
  56       24       52 1
  57       24       53 1
  58       25       54 1
  59       27       55 1
  60       28       56 1
  61       29       57 1
  62       30       58 1
  63       33       59 1
  64       33       60 1
  65       35       61 1
  66       36       62 1

@<TRIPOS>MOLECULE

  62   66
SMALL
USER_CHARGES
@<TRIPOS>ATOM
   1 C1           2.8952     6.0247     6.5312 C.3          1    LIG   0.0000
   2 O2           1.5970     5.5358     6.2279 O.3          1    LIG   0.0000
   3 C3           1.4342     5.0559     4.9768 C.ar         1    LIG   0.0000
   4 C4           0.1973     4.5548     4.5854 C.ar         1    LIG   0.0000
   5 C5           0.0236     4.0598     3.2970 C.ar         1    LIG   0.0000
   6 C6           1.0980     4.0753     2.4138 C.ar         1    LIG   0.0000
   7 C7           0.9151     3.5368     1.0040 C.3          1    LIG   0.0000
   8 C8          -0.1440     4.2718     0.2144 C.3          1    LIG   0.0000
   9 C9          -1.3846     3.4805     0.5774 C.2          1    LIG   0.0000
  10 C10         -2.7481     3.9590     0.4596 C.ar         1    LIG   0.0000
  11 C11         -2.9859     5.2411    -0.0246 C.ar         1    LIG   0.0000
  12 C12         -4.2966     5.6952    -0.1366 C.ar         1    LIG   0.0000
  13 C13         -5.3530     4.8701     0.2341 C.ar         1    LIG   0.0000
  14 C14         -6.6597     5.3325     0.1158 C.ar         1    LIG   0.0000
  15 C15         -7.7104     4.5001     0.4867 C.ar         1    LIG   0.0000
  16 C16         -7.4628     3.2206     0.9714 C.ar         1    LIG   0.0000
  17 C17         -6.1544     2.7633     1.0870 C.ar         1    LIG   0.0000
  18 C18         -5.0995     3.5909     0.7169 C.ar         1    LIG   0.0000
  19 C19         -3.7949     3.1234     0.8333 C.ar         1    LIG   0.0000
  20 N20         -1.0414     2.3414     1.0000 N.2          1    LIG   0.0000
  21 N21          0.2988     2.2145     1.0000 N.am         1    LIG   0.0000
  22 C22          1.0000     1.0000     1.0000 C.2          1    LIG   0.0000
  23 O23          0.4000    -0.0392     1.0000 O.2          1    LIG   0.0000
  24 C24          2.5200     1.0000     1.0000 C.3          1    LIG   0.0000
  25 N25          3.0100    -0.3859     1.0000 N.pl3        1    LIG   0.0000
  26 C26          3.2434    -1.0461    -0.2129 C.ar         1    LIG   0.0000
  27 C27          4.1741    -0.5096    -1.0970 C.ar         1    LIG   0.0000
  28 C28          4.4279    -1.1436    -2.3091 C.ar         1    LIG   0.0000
  29 C29          3.7501    -2.3129    -2.6380 C.ar         1    LIG   0.0000
  30 C30          2.8180    -2.8489    -1.7545 C.ar         1    LIG   0.0000
  31 C31          2.5646    -2.2159    -0.5419 C.ar         1    LIG   0.0000
  32 C32          1.5935    -2.7746     0.3787 C.2          1    LIG   0.0000
  33 N33          0.9256    -3.9260     0.0544 N.am         1    LIG   0.0000
  34 O34          1.3749    -2.2285     1.4247 O.2          1    LIG   0.0000
  35 C35          2.3351     4.5763     2.8055 C.ar         1    LIG   0.0000
  36 C36          2.5089     5.0710     4.0940 C.ar         1    LIG   0.0000
  37 H            1.7848     3.5264     0.5106 H            1    LIG   0.0000
  38 H            2.9147     6.3560     7.4745 H            1    LIG   0.0000
  39 H            3.5626     5.2878     6.4228 H            1    LIG   0.0000
  40 H            3.1226     6.7744     5.9097 H            1    LIG   0.0000
  41 H           -0.5672     4.5503     5.2301 H            1    LIG   0.0000
  42 H           -0.8628     3.6973     3.0093 H            1    LIG   0.0000
  43 H           -0.2205     5.2260     0.5036 H            1    LIG   0.0000
  44 H            0.0397     4.2349    -0.7679 H            1    LIG   0.0000
  45 H           -2.2227     5.8305    -0.2895 H            1    LIG   0.0000
  46 H           -4.4788     6.6151    -0.4838 H            1    LIG   0.0000
  47 H           -6.8414     6.2523    -0.2319 H            1    LIG   0.0000
  48 H           -8.6526     4.8249     0.4042 H            1    LIG   0.0000
  49 H           -8.2248     2.6298     1.2365 H            1    LIG   0.0000
  50 H           -5.9729     1.8435     1.4348 H            1    LIG   0.0000
  51 H           -3.6129     2.2030     1.1793 H            1    LIG   0.0000
  52 H            2.8533     1.4714     0.1835 H            1    LIG   0.0000
  53 H            2.8533     1.4714     1.8165 H            1    LIG   0.0000
  54 H            3.1767    -0.8573     1.8660 H            1    LIG   0.0000
  55 H            4.6607     0.3316    -0.8612 H            1    LIG   0.0000
  56 H            5.0978    -0.7586    -2.9439 H            1    LIG   0.0000
  57 H            3.9326    -2.7684    -3.5094 H            1    LIG   0.0000
  58 H            2.3302    -3.6892    -1.9913 H            1    LIG   0.0000
  59 H            1.1078    -4.3811    -0.8172 H            1    LIG   0.0000
  60 H            0.2560    -4.3113     0.6893 H            1    LIG   0.0000
  61 H            3.0996     4.5809     2.1609 H            1    LIG   0.0000
  62 H            3.3955     5.4329     4.3819 H            1    LIG   0.0000
@<TRIPOS>BOND
   1        1        2 1
   2        2        3 1
   3        3        4 ar
   4        4        5 ar
   5        5        6 ar
   6        6        7 1
   7        7        8 1
   8        8        9 1
   9        9       10 1
  10       10       11 ar
  11       11       12 ar
  12       12       13 ar
  13       13       14 ar
  14       14       15 ar
  15       15       16 ar
  16       16       17 ar
  17       17       18 ar
  18       18       13 ar
  19       18       19 ar
  20       19       10 ar
  21        9       20 2
  22       20       21 1
  23       21        7 1
  24       21       22 am
  25       22       23 2
  26       22       24 1
  27       24       25 1
  28       25       26 1
  29       26       27 ar
  30       27       28 ar
  31       28       29 ar
  32       29       30 ar
  33       30       31 ar
  34       31       26 ar
  35       31       32 1
  36       32       33 am
  37       32       34 2
  38        6       35 ar
  39       35       36 ar
  40       36        3 ar
  41        7       37 1
  42        1       38 1
  43        1       39 1
  44        1       40 1
  45        4       41 1
  46        5       42 1
  47        8       43 1
  48        8       44 1
  49       11       45 1
  50       12       46 1
  51       14       47 1
  52       15       48 1
  53       16       49 1
  54       17       50 1
  55       19       51 1
  56       24       52 1
  57       24       53 1
  58       25       54 1
  59       27       55 1
  60       28       56 1
  61       29       57 1
  62       30       58 1
  63       33       59 1
  64       33       60 1
  65       35       61 1
  66       36       62 1

@<TRIPOS>MOLECULE

  62   66
SMALL
USER_CHARGES
@<TRIPOS>ATOM
   1 C1           2.8952     6.0247     6.5312 C.3          1    LIG   0.0000
   2 O2           1.5970     5.5358     6.2279 O.3          1    LIG   0.0000
   3 C3           1.4342     5.0559     4.9768 C.ar         1    LIG   0.0000
   4 C4           0.1973     4.5548     4.5854 C.ar         1    LIG   0.0000
   5 C5           0.0236     4.0598     3.2970 C.ar         1    LIG   0.0000
   6 C6           1.0980     4.0753     2.4138 C.ar         1    LIG   0.0000
   7 C7           0.9151     3.5368     1.0040 C.3          1    LIG   0.0000
   8 C8          -0.1440     4.2718     0.2144 C.3          1    LIG   0.0000
   9 C9          -1.3846     3.4805     0.5774 C.2          1    LIG   0.0000
  10 C10         -2.7481     3.9590     0.4596 C.ar         1    LIG   0.0000
  11 C11         -3.8009     3.1299     0.8323 C.ar         1    LIG   0.0000
  12 C12         -5.1077     3.5944     0.7182 C.ar         1    LIG   0.0000
  13 C13         -5.3512     4.8757     0.2353 C.ar         1    LIG   0.0000
  14 C14         -6.6610     5.3317     0.1276 C.ar         1    LIG   0.0000
  15 C15         -6.8954     6.6151    -0.3544 C.ar         1    LIG   0.0000
  16 C16         -5.8367     7.4361    -0.7262 C.ar         1    LIG   0.0000
  17 C17         -4.5291     6.9753    -0.6159 C.ar         1    LIG   0.0000
  18 C18         -4.2883     5.6930    -0.1339 C.ar         1    LIG   0.0000
  19 C19         -2.9771     5.2424    -0.0242 C.ar         1    LIG   0.0000
  20 N20         -1.0414     2.3414     1.0000 N.2          1    LIG   0.0000
  21 N21          0.2988     2.2145     1.0000 N.am         1    LIG   0.0000
  22 C22          1.0000     1.0000     1.0000 C.2          1    LIG   0.0000
  23 O23          0.4000    -0.0392     1.0000 O.2          1    LIG   0.0000
  24 C24          2.5200     1.0000     1.0000 C.3          1    LIG   0.0000
  25 N25          3.0100    -0.3859     1.0000 N.pl3        1    LIG   0.0000
  26 C26          3.2434    -1.0461    -0.2129 C.ar         1    LIG   0.0000
  27 C27          4.1741    -0.5096    -1.0970 C.ar         1    LIG   0.0000
  28 C28          4.4279    -1.1436    -2.3091 C.ar         1    LIG   0.0000
  29 C29          3.7501    -2.3129    -2.6380 C.ar         1    LIG   0.0000
  30 C30          2.8180    -2.8489    -1.7545 C.ar         1    LIG   0.0000
  31 C31          2.5646    -2.2159    -0.5419 C.ar         1    LIG   0.0000
  32 C32          1.5935    -2.7746     0.3787 C.2          1    LIG   0.0000
  33 N33          0.9256    -3.9260     0.0544 N.am         1    LIG   0.0000
  34 O34          1.3749    -2.2285     1.4247 O.2          1    LIG   0.0000
  35 C35          2.3351     4.5763     2.8055 C.ar         1    LIG   0.0000
  36 C36          2.5089     5.0710     4.0940 C.ar         1    LIG   0.0000
  37 H            1.7848     3.5264     0.5106 H            1    LIG   0.0000
  38 H            2.9147     6.3560     7.4745 H            1    LIG   0.0000
  39 H            3.5626     5.2878     6.4228 H            1    LIG   0.0000
  40 H            3.1226     6.7744     5.9097 H            1    LIG   0.0000
  41 H           -0.5672     4.5503     5.2301 H            1    LIG   0.0000
  42 H           -0.8628     3.6973     3.0093 H            1    LIG   0.0000
  43 H           -0.2205     5.2260     0.5036 H            1    LIG   0.0000
  44 H            0.0397     4.2349    -0.7679 H            1    LIG   0.0000
  45 H           -3.6205     2.2093     1.1787 H            1    LIG   0.0000
  46 H           -5.8720     3.0067     0.9836 H            1    LIG   0.0000
  47 H           -7.4249     4.7437     0.3935 H            1    LIG   0.0000
  48 H           -7.8341     6.9505    -0.4343 H            1    LIG   0.0000
  49 H           -6.0152     8.3570    -1.0726 H            1    LIG   0.0000
  50 H           -3.7653     7.5634    -0.8820 H            1    LIG   0.0000
  51 H           -2.2129     5.8307    -0.2886 H            1    LIG   0.0000
  52 H            2.8533     1.4714     0.1835 H            1    LIG   0.0000
  53 H            2.8533     1.4714     1.8165 H            1    LIG   0.0000
  54 H            3.1767    -0.8573     1.8660 H            1    LIG   0.0000
  55 H            4.6607     0.3316    -0.8612 H            1    LIG   0.0000
  56 H            5.0978    -0.7586    -2.9439 H            1    LIG   0.0000
  57 H            3.9326    -2.7684    -3.5094 H            1    LIG   0.0000
  58 H            2.3302    -3.6892    -1.9913 H            1    LIG   0.0000
  59 H            1.1078    -4.3811    -0.8172 H            1    LIG   0.0000
  60 H            0.2560    -4.3113     0.6893 H            1    LIG   0.0000
  61 H            3.0996     4.5809     2.1609 H            1    LIG   0.0000
  62 H            3.3955     5.4329     4.3819 H            1    LIG   0.0000
@<TRIPOS>BOND
   1        1        2 1
   2        2        3 1
   3        3        4 ar
   4        4        5 ar
   5        5        6 ar
   6        6        7 1
   7        7        8 1
   8        8        9 1
   9        9       10 1
  10       10       11 ar
  11       11       12 ar
  12       12       13 ar
  13       13       14 ar
  14       14       15 ar
  15       15       16 ar
  16       16       17 ar
  17       17       18 ar
  18       18       13 ar
  19       18       19 ar
  20       19       10 ar
  21        9       20 2
  22       20       21 1
  23       21        7 1
  24       21       22 am
  25       22       23 2
  26       22       24 1
  27       24       25 1
  28       25       26 1
  29       26       27 ar
  30       27       28 ar
  31       28       29 ar
  32       29       30 ar
  33       30       31 ar
  34       31       26 ar
  35       31       32 1
  36       32       33 am
  37       32       34 2
  38        6       35 ar
  39       35       36 ar
  40       36        3 ar
  41        7       37 1
  42        1       38 1
  43        1       39 1
  44        1       40 1
  45        4       41 1
  46        5       42 1
  47        8       43 1
  48        8       44 1
  49       11       45 1
  50       12       46 1
  51       14       47 1
  52       15       48 1
  53       16       49 1
  54       17       50 1
  55       19       51 1
  56       24       52 1
  57       24       53 1
  58       25       54 1
  59       27       55 1
  60       28       56 1
  61       29       57 1
  62       30       58 1
  63       33       59 1
  64       33       60 1
  65       35       61 1
  66       36       62 1

@<TRIPOS>MOLECULE

  62   66
SMALL
USER_CHARGES
@<TRIPOS>ATOM
   1 C1           6.7106     3.9514     3.6950 C.3          1    LIG   0.0000
   2 O2           5.5319     3.4194     4.2816 O.3          1    LIG   0.0000
   3 C3           4.4315     3.4446     3.5001 C.ar         1    LIG   0.0000
   4 C4           3.2280     2.9455     3.9868 C.ar         1    LIG   0.0000
   5 C5           2.0906     2.9699     3.1863 C.ar         1    LIG   0.0000
   6 C6           2.1758     3.4982     1.9024 C.ar         1    LIG   0.0000
   7 C7           0.9366     3.5288     1.0225 C.3          1    LIG   0.0000
   8 C8          -0.1481     4.3605     1.6747 C.3          1    LIG   0.0000
   9 C9          -1.3704     3.5270     1.3658 C.2          1    LIG   0.0000
  10 C10         -2.7334     4.0066     1.4857 C.ar         1    LIG   0.0000
  11 C11         -2.9668     5.3143     1.8982 C.ar         1    LIG   0.0000
  12 C12         -4.2768     5.7701     2.0107 C.ar         1    LIG   0.0000
  13 C13         -5.3371     4.9209     1.7124 C.ar         1    LIG   0.0000
  14 C14         -6.6430     5.3868     1.8254 C.ar         1    LIG   0.0000
  15 C15         -7.6974     4.5316     1.5232 C.ar         1    LIG   0.0000
  16 C16         -7.4542     3.2255     1.1134 C.ar         1    LIG   0.0000
  17 C17         -6.1466     2.7650     1.0015 C.ar         1    LIG   0.0000
  18 C18         -5.0880     3.6158     1.3017 C.ar         1    LIG   0.0000
  19 C19         -3.7839     3.1471     1.1838 C.ar         1    LIG   0.0000
  20 N20         -1.0385     2.3609     1.0000 N.2          1    LIG   0.0000
  21 N21          0.2986     2.2149     1.0000 N.am         1    LIG   0.0000
  22 C22          1.0000     1.0000     1.0000 C.2          1    LIG   0.0000
  23 O23          0.4000    -0.0392     1.0000 O.2          1    LIG   0.0000
  24 C24          2.5200     1.0000     1.0000 C.3          1    LIG   0.0000
  25 N25          3.0100    -0.3859     1.0000 N.pl3        1    LIG   0.0000
  26 C26          3.2434    -1.0461    -0.2129 C.ar         1    LIG   0.0000
  27 C27          4.1741    -0.5096    -1.0970 C.ar         1    LIG   0.0000
  28 C28          4.4279    -1.1436    -2.3091 C.ar         1    LIG   0.0000
  29 C29          3.7501    -2.3129    -2.6380 C.ar         1    LIG   0.0000
  30 C30          2.8180    -2.8489    -1.7545 C.ar         1    LIG   0.0000
  31 C31          2.5646    -2.2159    -0.5419 C.ar         1    LIG   0.0000
  32 C32          1.5935    -2.7746     0.3787 C.2          1    LIG   0.0000
  33 N33          0.9256    -3.9260     0.0544 N.am         1    LIG   0.0000
  34 O34          1.3749    -2.2285     1.4247 O.2          1    LIG   0.0000
  35 C35          3.3796     3.9971     1.4158 C.ar         1    LIG   0.0000
  36 C36          4.5171     3.9725     2.2162 C.ar         1    LIG   0.0000
  37 H            1.1465     3.8533     0.1001 H            1    LIG   0.0000
  38 H            7.4655     3.8883     4.3477 H            1    LIG   0.0000
  39 H            6.9373     3.4310     2.8717 H            1    LIG   0.0000
  40 H            6.5589     4.9096     3.4524 H            1    LIG   0.0000
  41 H            3.1803     2.5691     4.9121 H            1    LIG   0.0000
  42 H            1.2223     2.6119     3.5296 H            1    LIG   0.0000
  43 H           -0.0020     4.4481     2.6601 H            1    LIG   0.0000
  44 H           -0.2103     5.2705     1.2648 H            1    LIG   0.0000
  45 H           -2.2009     5.9208     2.1118 H            1    LIG   0.0000
  46 H           -4.4559     6.7085     2.3061 H            1    LIG   0.0000
  47 H           -6.8215     6.3255     2.1205 H            1    LIG   0.0000
  48 H           -8.6389     4.8592     1.6014 H            1    LIG   0.0000
  49 H           -8.2189     2.6176     0.8992 H            1    LIG   0.0000
  50 H           -5.9683     1.8263     0.7066 H            1    LIG   0.0000
  51 H           -3.6050     2.2090     0.8872 H            1    LIG   0.0000
  52 H            2.8533     1.4714     0.1835 H            1    LIG   0.0000
  53 H            2.8533     1.4714     1.8165 H            1    LIG   0.0000
  54 H            3.1767    -0.8573     1.8660 H            1    LIG   0.0000
  55 H            4.6607     0.3316    -0.8612 H            1    LIG   0.0000
  56 H            5.0978    -0.7586    -2.9439 H            1    LIG   0.0000
  57 H            3.9326    -2.7684    -3.5094 H            1    LIG   0.0000
  58 H            2.3302    -3.6892    -1.9913 H            1    LIG   0.0000
  59 H            1.1078    -4.3811    -0.8172 H            1    LIG   0.0000
  60 H            0.2560    -4.3113     0.6893 H            1    LIG   0.0000
  61 H            3.4274     4.3735     0.4906 H            1    LIG   0.0000
  62 H            5.3856     4.3299     1.8727 H            1    LIG   0.0000
@<TRIPOS>BOND
   1        1        2 1
   2        2        3 1
   3        3        4 ar
   4        4        5 ar
   5        5        6 ar
   6        6        7 1
   7        7        8 1
   8        8        9 1
   9        9       10 1
  10       10       11 ar
  11       11       12 ar
  12       12       13 ar
  13       13       14 ar
  14       14       15 ar
  15       15       16 ar
  16       16       17 ar
  17       17       18 ar
  18       18       13 ar
  19       18       19 ar
  20       19       10 ar
  21        9       20 2
  22       20       21 1
  23       21        7 1
  24       21       22 am
  25       22       23 2
  26       22       24 1
  27       24       25 1
  28       25       26 1
  29       26       27 ar
  30       27       28 ar
  31       28       29 ar
  32       29       30 ar
  33       30       31 ar
  34       31       26 ar
  35       31       32 1
  36       32       33 am
  37       32       34 2
  38        6       35 ar
  39       35       36 ar
  40       36        3 ar
  41        7       37 1
  42        1       38 1
  43        1       39 1
  44        1       40 1
  45        4       41 1
  46        5       42 1
  47        8       43 1
  48        8       44 1
  49       11       45 1
  50       12       46 1
  51       14       47 1
  52       15       48 1
  53       16       49 1
  54       17       50 1
  55       19       51 1
  56       24       52 1
  57       24       53 1
  58       25       54 1
  59       27       55 1
  60       28       56 1
  61       29       57 1
  62       30       58 1
  63       33       59 1
  64       33       60 1
  65       35       61 1
  66       36       62 1

@<TRIPOS>MOLECULE

  62   66
SMALL
USER_CHARGES
@<TRIPOS>ATOM
   1 C1           6.7106     3.9514     3.6950 C.3          1    LIG   0.0000
   2 O2           5.5319     3.4194     4.2816 O.3          1    LIG   0.0000
   3 C3           4.4315     3.4446     3.5001 C.ar         1    LIG   0.0000
   4 C4           3.2280     2.9455     3.9868 C.ar         1    LIG   0.0000
   5 C5           2.0906     2.9699     3.1863 C.ar         1    LIG   0.0000
   6 C6           2.1758     3.4982     1.9024 C.ar         1    LIG   0.0000
   7 C7           0.9366     3.5288     1.0225 C.3          1    LIG   0.0000
   8 C8          -0.1481     4.3605     1.6747 C.3          1    LIG   0.0000
   9 C9          -1.3704     3.5270     1.3658 C.2          1    LIG   0.0000
  10 C10         -2.7334     4.0066     1.4857 C.ar         1    LIG   0.0000
  11 C11         -3.7900     3.1529     1.1867 C.ar         1    LIG   0.0000
  12 C12         -5.0963     3.6180     1.3044 C.ar         1    LIG   0.0000
  13 C13         -5.3355     4.9244     1.7170 C.ar         1    LIG   0.0000
  14 C14         -6.6450     5.3789     1.8341 C.ar         1    LIG   0.0000
  15 C15         -6.8753     6.6862     2.2493 C.ar         1    LIG   0.0000
  16 C16         -5.8125     7.5328     2.5443 C.ar         1    LIG   0.0000
  17 C17         -4.5052     7.0730     2.4261 C.ar         1    LIG   0.0000
  18 C18         -4.2687     5.7664     2.0120 C.ar         1    LIG   0.0000
  19 C19         -2.9580     5.3149     1.8999 C.ar         1    LIG   0.0000
  20 N20         -1.0385     2.3609     1.0000 N.2          1    LIG   0.0000
  21 N21          0.2986     2.2149     1.0000 N.am         1    LIG   0.0000
  22 C22          1.0000     1.0000     1.0000 C.2          1    LIG   0.0000
  23 O23          0.4000    -0.0392     1.0000 O.2          1    LIG   0.0000
  24 C24          2.5200     1.0000     1.0000 C.3          1    LIG   0.0000
  25 N25          3.0100    -0.3859     1.0000 N.pl3        1    LIG   0.0000
  26 C26          3.2434    -1.0461    -0.2129 C.ar         1    LIG   0.0000
  27 C27          4.1741    -0.5096    -1.0970 C.ar         1    LIG   0.0000
  28 C28          4.4279    -1.1436    -2.3091 C.ar         1    LIG   0.0000
  29 C29          3.7501    -2.3129    -2.6380 C.ar         1    LIG   0.0000
  30 C30          2.8180    -2.8489    -1.7545 C.ar         1    LIG   0.0000
  31 C31          2.5646    -2.2159    -0.5419 C.ar         1    LIG   0.0000
  32 C32          1.5935    -2.7746     0.3787 C.2          1    LIG   0.0000
  33 N33          0.9256    -3.9260     0.0544 N.am         1    LIG   0.0000
  34 O34          1.3749    -2.2285     1.4247 O.2          1    LIG   0.0000
  35 C35          3.3796     3.9971     1.4158 C.ar         1    LIG   0.0000
  36 C36          4.5171     3.9725     2.2162 C.ar         1    LIG   0.0000
  37 H            1.1465     3.8533     0.1001 H            1    LIG   0.0000
  38 H            7.4655     3.8883     4.3477 H            1    LIG   0.0000
  39 H            6.9373     3.4310     2.8717 H            1    LIG   0.0000
  40 H            6.5589     4.9096     3.4524 H            1    LIG   0.0000
  41 H            3.1803     2.5691     4.9121 H            1    LIG   0.0000
  42 H            1.2223     2.6119     3.5296 H            1    LIG   0.0000
  43 H           -0.0020     4.4481     2.6601 H            1    LIG   0.0000
  44 H           -0.2103     5.2705     1.2648 H            1    LIG   0.0000
  45 H           -3.6127     2.2145     0.8902 H            1    LIG   0.0000
  46 H           -5.8634     3.0125     1.0923 H            1    LIG   0.0000
  47 H           -7.4117     4.7729     1.6222 H            1    LIG   0.0000
  48 H           -7.8138     7.0203     2.3365 H            1    LIG   0.0000
  49 H           -5.9880     8.4715     2.8412 H            1    LIG   0.0000
  50 H           -3.7386     7.6792     2.6379 H            1    LIG   0.0000
  51 H           -2.1911     5.9202     2.1132 H            1    LIG   0.0000
  52 H            2.8533     1.4714     0.1835 H            1    LIG   0.0000
  53 H            2.8533     1.4714     1.8165 H            1    LIG   0.0000
  54 H            3.1767    -0.8573     1.8660 H            1    LIG   0.0000
  55 H            4.6607     0.3316    -0.8612 H            1    LIG   0.0000
  56 H            5.0978    -0.7586    -2.9439 H            1    LIG   0.0000
  57 H            3.9326    -2.7684    -3.5094 H            1    LIG   0.0000
  58 H            2.3302    -3.6892    -1.9913 H            1    LIG   0.0000
  59 H            1.1078    -4.3811    -0.8172 H            1    LIG   0.0000
  60 H            0.2560    -4.3113     0.6893 H            1    LIG   0.0000
  61 H            3.4274     4.3735     0.4906 H            1    LIG   0.0000
  62 H            5.3856     4.3299     1.8727 H            1    LIG   0.0000
@<TRIPOS>BOND
   1        1        2 1
   2        2        3 1
   3        3        4 ar
   4        4        5 ar
   5        5        6 ar
   6        6        7 1
   7        7        8 1
   8        8        9 1
   9        9       10 1
  10       10       11 ar
  11       11       12 ar
  12       12       13 ar
  13       13       14 ar
  14       14       15 ar
  15       15       16 ar
  16       16       17 ar
  17       17       18 ar
  18       18       13 ar
  19       18       19 ar
  20       19       10 ar
  21        9       20 2
  22       20       21 1
  23       21        7 1
  24       21       22 am
  25       22       23 2
  26       22       24 1
  27       24       25 1
  28       25       26 1
  29       26       27 ar
  30       27       28 ar
  31       28       29 ar
  32       29       30 ar
  33       30       31 ar
  34       31       26 ar
  35       31       32 1
  36       32       33 am
  37       32       34 2
  38        6       35 ar
  39       35       36 ar
  40       36        3 ar
  41        7       37 1
  42        1       38 1
  43        1       39 1
  44        1       40 1
  45        4       41 1
  46        5       42 1
  47        8       43 1
  48        8       44 1
  49       11       45 1
  50       12       46 1
  51       14       47 1
  52       15       48 1
  53       16       49 1
  54       17       50 1
  55       19       51 1
  56       24       52 1
  57       24       53 1
  58       25       54 1
  59       27       55 1
  60       28       56 1
  61       29       57 1
  62       30       58 1
  63       33       59 1
  64       33       60 1
  65       35       61 1
  66       36       62 1

