@<TRIPOS>MOLECULE
*****
 62 66 0 0 0
SMALL
USER_CHARGES

@<TRIPOS>ATOM
      1 C1          6.7106    3.9514    3.6950 C.3     1  LIG1        0.0000
      2 O2          5.5319    3.4194    4.2816 O.2     1  LIG1        0.0000
      3 C3          4.4315    3.4446    3.5001 C.3     1  LIG1        0.0000
      4 C4          3.2280    2.9455    3.9868 C.3     1  LIG1        0.0000
      5 C5          2.0906    2.9699    3.1863 C.3     1  LIG1        0.0000
      6 C6          2.1758    3.4982    1.9024 C.3     1  LIG1        0.0000
      7 C7          0.9366    3.5288    1.0225 C.3     1  LIG1        0.0000
      8 C8         -0.1481    4.3605    1.6747 C.3     1  LIG1        0.0000
      9 C9         -1.3704    3.5270    1.3658 C.2     1  LIG1        0.0000
     10 C10        -2.7334    4.0066    1.4857 C.3     1  LIG1        0.0000
     11 C11        -2.9668    5.3143    1.8982 C.3     1  LIG1        0.0000
     12 C12        -4.2768    5.7701    2.0107 C.3     1  LIG1        0.0000
     13 C13        -5.3371    4.9209    1.7124 C.3     1  LIG1        0.0000
     14 C14        -6.6430    5.3868    1.8254 C.3     1  LIG1        0.0000
     15 C15        -7.6974    4.5316    1.5232 C.3     1  LIG1        0.0000
     16 C16        -7.4542    3.2255    1.1134 C.3     1  LIG1        0.0000
     17 C17        -6.1466    2.7650    1.0015 C.3     1  LIG1        0.0000
     18 C18        -5.0880    3.6158    1.3017 C.3     1  LIG1        0.0000
     19 C19        -3.7839    3.1471    1.1838 C.3     1  LIG1        0.0000
     20 N20        -1.0385    2.3609    1.0000 N.2     1  LIG1        0.0000
     21 N21         0.2986    2.2149    1.0000 N.am    1  LIG1        0.0000
     22 C22         1.0000    1.0000    1.0000 C.2     1  LIG1        0.0000
     23 O23         0.4000   -0.0392    1.0000 O.2     1  LIG1        0.0000
     24 C24         2.5200    1.0000    1.0000 C.3     1  LIG1        0.0000
     25 N25         3.0100   -0.3859    1.0000 N.pl3   1  LIG1        0.0000
     26 C26         3.2434   -1.0461   -0.2129 C.3     1  LIG1        0.0000
     27 C27         4.1741   -0.5096   -1.0970 C.3     1  LIG1        0.0000
     28 C28         4.4279   -1.1436   -2.3091 C.3     1  LIG1        0.0000
     29 C29         3.7501   -2.3129   -2.6380 C.3     1  LIG1        0.0000
     30 C30         2.8180   -2.8489   -1.7545 C.3     1  LIG1        0.0000
     31 C31         2.5646   -2.2159   -0.5419 C.3     1  LIG1        0.0000
     32 C32         1.5935   -2.7746    0.3787 C.2     1  LIG1        0.0000
     33 N33         0.9256   -3.9260    0.0544 N.am    1  LIG1        0.0000
     34 O34         1.3749   -2.2285    1.4247 O.2     1  LIG1        0.0000
     35 C35         3.3796    3.9971    1.4158 C.3     1  LIG1        0.0000
     36 C36         4.5171    3.9725    2.2162 C.3     1  LIG1        0.0000
     37 H           1.1465    3.8533    0.1001 H       1  LIG1        0.0000
     38 H           7.4655    3.8883    4.3477 H       1  LIG1        0.0000
     39 H           6.9373    3.4310    2.8717 H       1  LIG1        0.0000
     40 H           6.5589    4.9096    3.4524 H       1  LIG1        0.0000
     41 H           3.1803    2.5691    4.9121 H       1  LIG1        0.0000
     42 H           1.2223    2.6119    3.5296 H       1  LIG1        0.0000
     43 H          -0.0020    4.4481    2.6601 H       1  LIG1        0.0000
     44 H          -0.2103    5.2705    1.2648 H       1  LIG1        0.0000
     45 H          -2.2009    5.9208    2.1118 H       1  LIG1        0.0000
     46 H          -4.4559    6.7085    2.3061 H       1  LIG1        0.0000
     47 H          -6.8215    6.3255    2.1205 H       1  LIG1        0.0000
     48 H          -8.6389    4.8592    1.6014 H       1  LIG1        0.0000
     49 H          -8.2189    2.6176    0.8992 H       1  LIG1        0.0000
     50 H          -5.9683    1.8263    0.7066 H       1  LIG1        0.0000
     51 H          -3.6050    2.2090    0.8872 H       1  LIG1        0.0000
     52 H           2.8533    1.4714    0.1835 H       1  LIG1        0.0000
     53 H           2.8533    1.4714    1.8165 H       1  LIG1        0.0000
     54 H           3.1767   -0.8573    1.8660 H       1  LIG1        0.0000
     55 H           4.6607    0.3316   -0.8612 H       1  LIG1        0.0000
     56 H           5.0978   -0.7586   -2.9439 H       1  LIG1        0.0000
     57 H           3.9326   -2.7684   -3.5094 H       1  LIG1        0.0000
     58 H           2.3302   -3.6892   -1.9913 H       1  LIG1        0.0000
     59 H           1.1078   -4.3811   -0.8172 H       1  LIG1        0.0000
     60 H           0.2560   -4.3113    0.6893 H       1  LIG1        0.0000
     61 H           3.4274    4.3735    0.4906 H       1  LIG1        0.0000
     62 H           5.3856    4.3299    1.8727 H       1  LIG1        0.0000
@<TRIPOS>BOND
     1     1     2    1
     2     2     3    1
     3     3     4   ar
     4     4     5   ar
     5     5     6   ar
     6     6     7    1
     7     7     8    1
     8     8     9    1
     9     9    10    1
    10    10    11   ar
    11    11    12   ar
    12    12    13   ar
    13    13    14   ar
    14    14    15   ar
    15    15    16   ar
    16    16    17   ar
    17    17    18   ar
    18    18    13   ar
    19    18    19   ar
    20    19    10   ar
    21     9    20    2
    22    20    21    1
    23    21     7    1
    24    21    22   am
    25    22    23    2
    26    22    24    1
    27    24    25    1
    28    25    26    1
    29    26    27   ar
    30    27    28   ar
    31    28    29   ar
    32    29    30   ar
    33    30    31   ar
    34    31    26   ar
    35    31    32    1
    36    32    33   am
    37    32    34    2
    38     6    35   ar
    39    35    36   ar
    40    36     3   ar
    41     7    37    1
    42     1    38    1
    43     1    39    1
    44     1    40    1
    45     4    41    1
    46     5    42    1
    47     8    43    1
    48     8    44    1
    49    11    45    1
    50    12    46    1
    51    14    47    1
    52    15    48    1
    53    16    49    1
    54    17    50    1
    55    19    51    1
    56    24    52    1
    57    24    53    1
    58    25    54    1
    59    27    55    1
    60    28    56    1
    61    29    57    1
    62    30    58    1
    63    33    59    1
    64    33    60    1
    65    35    61    1
    66    36    62    1
