@<TRIPOS>MOLECULE
*****
 62 66 0 0 0
SMALL
USER_CHARGES

@<TRIPOS>ATOM
      1 C1          6.7106    3.9514    3.6950 C.3     1  LIG1        0.0000
      2 O2          5.5319    3.4194    4.2816 O.2     1  LIG1        0.0000
      3 C3          4.4315    3.4446    3.5001 C.3     1  LIG1        0.0000
      4 C4          3.2280    2.9455    3.9868 C.3     1  LIG1        0.0000
      5 C5          2.0906    2.9699    3.1863 C.3     1  LIG1        0.0000
      6 C6          2.1758    3.4982    1.9024 C.3     1  LIG1        0.0000
      7 C7          0.9366    3.5288    1.0225 C.3     1  LIG1        0.0000
      8 C8         -0.1481    4.3605    1.6747 C.3     1  LIG1        0.0000
      9 C9         -1.3704    3.5270    1.3658 C.2     1  LIG1        0.0000
     10 C10        -2.7334    4.0066    1.4857 C.3     1  LIG1        0.0000
     11 C11        -3.7900    3.1529    1.1867 C.3     1  LIG1        0.0000
     12 C12        -5.0963    3.6180    1.3044 C.3     1  LIG1        0.0000
     13 C13        -5.3355    4.9244    1.7170 C.3     1  LIG1        0.0000
     14 C14        -6.6450    5.3789    1.8341 C.3     1  LIG1        0.0000
     15 C15        -6.8753    6.6862    2.2493 C.3     1  LIG1        0.0000
     16 C16        -5.8125    7.5328    2.5443 C.3     1  LIG1        0.0000
     17 C17        -4.5052    7.0730    2.4261 C.3     1  LIG1        0.0000
     18 C18        -4.2687    5.7664    2.0120 C.3     1  LIG1        0.0000
     19 C19        -2.9580    5.3149    1.8999 C.3     1  LIG1        0.0000
     20 N20        -1.0385    2.3609    1.0000 N.2     1  LIG1        0.0000
     21 N21         0.2986    2.2149    1.0000 N.am    1  LIG1        0.0000
     22 C22         1.0000    1.0000    1.0000 C.2     1  LIG1        0.0000
     23 O23         0.4000   -0.0392    1.0000 O.2     1  LIG1        0.0000
     24 C24         2.5200    1.0000    1.0000 C.3     1  LIG1        0.0000
     25 N25         3.0100   -0.3859    1.0000 N.pl3   1  LIG1        0.0000
     26 C26         3.2434   -1.0461   -0.2129 C.3     1  LIG1        0.0000
     27 C27         2.4733   -0.7023   -1.3195 C.3     1  LIG1        0.0000
     28 C28         2.6828   -1.3402   -2.5379 C.3     1  LIG1        0.0000
     29 C29         3.6609   -2.3229   -2.6498 C.3     1  LIG1        0.0000
     30 C30         4.4303   -2.6681   -1.5426 C.3     1  LIG1        0.0000
     31 C31         4.2218   -2.0298   -0.3243 C.3     1  LIG1        0.0000
     32 C32         5.0238   -2.3894    0.8292 C.2     1  LIG1        0.0000
     33 N33         5.9868   -3.3576    0.7190 N.am    1  LIG1        0.0000
     34 O34         4.8440   -1.8388    1.8802 O.2     1  LIG1        0.0000
     35 C35         3.3796    3.9971    1.4158 C.3     1  LIG1        0.0000
     36 C36         4.5171    3.9725    2.2162 C.3     1  LIG1        0.0000
     37 H           1.1465    3.8533    0.1001 H       1  LIG1        0.0000
     38 H           7.4655    3.8883    4.3477 H       1  LIG1        0.0000
     39 H           6.9373    3.4310    2.8717 H       1  LIG1        0.0000
     40 H           6.5589    4.9096    3.4524 H       1  LIG1        0.0000
     41 H           3.1803    2.5691    4.9121 H       1  LIG1        0.0000
     42 H           1.2223    2.6119    3.5296 H       1  LIG1        0.0000
     43 H          -0.0020    4.4481    2.6601 H       1  LIG1        0.0000
     44 H          -0.2103    5.2705    1.2648 H       1  LIG1        0.0000
     45 H          -3.6127    2.2145    0.8902 H       1  LIG1        0.0000
     46 H          -5.8634    3.0125    1.0923 H       1  LIG1        0.0000
     47 H          -7.4117    4.7729    1.6222 H       1  LIG1        0.0000
     48 H          -7.8138    7.0203    2.3365 H       1  LIG1        0.0000
     49 H          -5.9880    8.4715    2.8412 H       1  LIG1        0.0000
     50 H          -3.7386    7.6792    2.6379 H       1  LIG1        0.0000
     51 H          -2.1911    5.9202    2.1132 H       1  LIG1        0.0000
     52 H           2.8533    1.4714    0.1835 H       1  LIG1        0.0000
     53 H           2.8533    1.4714    1.8165 H       1  LIG1        0.0000
     54 H           3.1767   -0.8573    1.8660 H       1  LIG1        0.0000
     55 H           1.7693    0.0033   -1.2390 H       1  LIG1        0.0000
     56 H           2.1301   -1.0921   -3.3335 H       1  LIG1        0.0000
     57 H           3.8112   -2.7814   -3.5257 H       1  LIG1        0.0000
     58 H           5.1330   -3.3750   -1.6229 H       1  LIG1        0.0000
     59 H           6.1366   -3.8164   -0.1568 H       1  LIG1        0.0000
     60 H           6.5398   -3.6056    1.5144 H       1  LIG1        0.0000
     61 H           3.4274    4.3735    0.4906 H       1  LIG1        0.0000
     62 H           5.3856    4.3299    1.8727 H       1  LIG1        0.0000
@<TRIPOS>BOND
     1     1     2    1
     2     2     3    1
     3     3     4   ar
     4     4     5   ar
     5     5     6   ar
     6     6     7    1
     7     7     8    1
     8     8     9    1
     9     9    10    1
    10    10    11   ar
    11    11    12   ar
    12    12    13   ar
    13    13    14   ar
    14    14    15   ar
    15    15    16   ar
    16    16    17   ar
    17    17    18   ar
    18    18    13   ar
    19    18    19   ar
    20    19    10   ar
    21     9    20    2
    22    20    21    1
    23    21     7    1
    24    21    22   am
    25    22    23    2
    26    22    24    1
    27    24    25    1
    28    25    26    1
    29    26    27   ar
    30    27    28   ar
    31    28    29   ar
    32    29    30   ar
    33    30    31   ar
    34    31    26   ar
    35    31    32    1
    36    32    33   am
    37    32    34    2
    38     6    35   ar
    39    35    36   ar
    40    36     3   ar
    41     7    37    1
    42     1    38    1
    43     1    39    1
    44     1    40    1
    45     4    41    1
    46     5    42    1
    47     8    43    1
    48     8    44    1
    49    11    45    1
    50    12    46    1
    51    14    47    1
    52    15    48    1
    53    16    49    1
    54    17    50    1
    55    19    51    1
    56    24    52    1
    57    24    53    1
    58    25    54    1
    59    27    55    1
    60    28    56    1
    61    29    57    1
    62    30    58    1
    63    33    59    1
    64    33    60    1
    65    35    61    1
    66    36    62    1
