@<TRIPOS>MOLECULE
*****
 62 66 0 0 0
SMALL
USER_CHARGES

@<TRIPOS>ATOM
      1 C1          1.1091    6.8547    6.4458 C.3     1  LIG1        0.0000
      2 O2          1.5890    5.5360    6.2289 O.2     1  LIG1        0.0000
      3 C3          1.4285    5.0577    4.9768 C.3     1  LIG1        0.0000
      4 C4          1.8671    3.7748    4.6667 C.3     1  LIG1        0.0000
      5 C5          1.7034    3.2766    3.3783 C.3     1  LIG1        0.0000
      6 C6          1.0980    4.0753    2.4138 C.3     1  LIG1        0.0000
      7 C7          0.9151    3.5368    1.0040 C.3     1  LIG1        0.0000
      8 C8         -0.1440    4.2718    0.2144 C.3     1  LIG1        0.0000
      9 C9         -1.3846    3.4805    0.5774 C.2     1  LIG1        0.0000
     10 C10        -2.7481    3.9590    0.4596 C.3     1  LIG1        0.0000
     11 C11        -3.8009    3.1299    0.8323 C.3     1  LIG1        0.0000
     12 C12        -5.1077    3.5944    0.7182 C.3     1  LIG1        0.0000
     13 C13        -5.3512    4.8757    0.2353 C.3     1  LIG1        0.0000
     14 C14        -6.6610    5.3317    0.1276 C.3     1  LIG1        0.0000
     15 C15        -6.8954    6.6151   -0.3544 C.3     1  LIG1        0.0000
     16 C16        -5.8367    7.4361   -0.7262 C.3     1  LIG1        0.0000
     17 C17        -4.5291    6.9753   -0.6159 C.3     1  LIG1        0.0000
     18 C18        -4.2883    5.6930   -0.1339 C.3     1  LIG1        0.0000
     19 C19        -2.9771    5.2424   -0.0242 C.3     1  LIG1        0.0000
     20 N20        -1.0414    2.3414    1.0000 N.2     1  LIG1        0.0000
     21 N21         0.2988    2.2145    1.0000 N.am    1  LIG1        0.0000
     22 C22         1.0000    1.0000    1.0000 C.2     1  LIG1        0.0000
     23 O23         0.4000   -0.0392    1.0000 O.2     1  LIG1        0.0000
     24 C24         2.5200    1.0000    1.0000 C.3     1  LIG1        0.0000
     25 N25         3.0100   -0.3859    1.0000 N.pl3   1  LIG1        0.0000
     26 C26         4.3869   -0.6418    1.0000 C.3     1  LIG1        0.0000
     27 C27         5.1553   -0.1627    2.0563 C.3     1  LIG1        0.0000
     28 C28         6.5255   -0.4020    2.0843 C.3     1  LIG1        0.0000
     29 C29         7.1278   -1.1187    1.0554 C.3     1  LIG1        0.0000
     30 C30         6.3597   -1.5968   -0.0021 C.3     1  LIG1        0.0000
     31 C31         4.9894   -1.3586   -0.0299 C.3     1  LIG1        0.0000
     32 C32         4.1890   -1.8570   -1.1317 C.2     1  LIG1        0.0000
     33 N33         4.7824   -2.5624   -2.1452 N.am    1  LIG1        0.0000
     34 O34         3.0070   -1.6515   -1.1558 O.2     1  LIG1        0.0000
     35 C35         0.6596    5.3584    2.7242 C.3     1  LIG1        0.0000
     36 C36         0.8235    5.8568    4.0124 C.3     1  LIG1        0.0000
     37 H           1.7848    3.5264    0.5106 H       1  LIG1        0.0000
     38 H           1.2726    7.1167    7.3970 H       1  LIG1        0.0000
     39 H           1.5886    7.4881    5.8385 H       1  LIG1        0.0000
     40 H           0.1280    6.8880    6.2549 H       1  LIG1        0.0000
     41 H           2.3001    3.2107    5.3698 H       1  LIG1        0.0000
     42 H           2.0172    2.3554    3.1483 H       1  LIG1        0.0000
     43 H          -0.2205    5.2260    0.5036 H       1  LIG1        0.0000
     44 H           0.0397    4.2349   -0.7679 H       1  LIG1        0.0000
     45 H          -3.6205    2.2093    1.1787 H       1  LIG1        0.0000
     46 H          -5.8720    3.0067    0.9836 H       1  LIG1        0.0000
     47 H          -7.4249    4.7437    0.3935 H       1  LIG1        0.0000
     48 H          -7.8341    6.9505   -0.4343 H       1  LIG1        0.0000
     49 H          -6.0152    8.3570   -1.0726 H       1  LIG1        0.0000
     50 H          -3.7653    7.5634   -0.8820 H       1  LIG1        0.0000
     51 H          -2.2129    5.8307   -0.2886 H       1  LIG1        0.0000
     52 H           2.8533    1.4714    0.1835 H       1  LIG1        0.0000
     53 H           2.8533    1.4714    1.8165 H       1  LIG1        0.0000
     54 H           2.3602   -1.1460    1.0000 H       1  LIG1        0.0000
     55 H           4.7227    0.3536    2.7954 H       1  LIG1        0.0000
     56 H           7.0775   -0.0587    2.8442 H       1  LIG1        0.0000
     57 H           8.1127   -1.2905    1.0756 H       1  LIG1        0.0000
     58 H           6.7928   -2.1115   -0.7420 H       1  LIG1        0.0000
     59 H           5.7675   -2.7337   -2.1251 H       1  LIG1        0.0000
     60 H           4.2306   -2.9061   -2.9050 H       1  LIG1        0.0000
     61 H           0.2266    5.9225    2.0211 H       1  LIG1        0.0000
     62 H           0.5103    6.7783    4.2424 H       1  LIG1        0.0000
@<TRIPOS>BOND
     1     1     2    1
     2     2     3    1
     3     3     4   ar
     4     4     5   ar
     5     5     6   ar
     6     6     7    1
     7     7     8    1
     8     8     9    1
     9     9    10    1
    10    10    11   ar
    11    11    12   ar
    12    12    13   ar
    13    13    14   ar
    14    14    15   ar
    15    15    16   ar
    16    16    17   ar
    17    17    18   ar
    18    18    13   ar
    19    18    19   ar
    20    19    10   ar
    21     9    20    2
    22    20    21    1
    23    21     7    1
    24    21    22   am
    25    22    23    2
    26    22    24    1
    27    24    25    1
    28    25    26    1
    29    26    27   ar
    30    27    28   ar
    31    28    29   ar
    32    29    30   ar
    33    30    31   ar
    34    31    26   ar
    35    31    32    1
    36    32    33   am
    37    32    34    2
    38     6    35   ar
    39    35    36   ar
    40    36     3   ar
    41     7    37    1
    42     1    38    1
    43     1    39    1
    44     1    40    1
    45     4    41    1
    46     5    42    1
    47     8    43    1
    48     8    44    1
    49    11    45    1
    50    12    46    1
    51    14    47    1
    52    15    48    1
    53    16    49    1
    54    17    50    1
    55    19    51    1
    56    24    52    1
    57    24    53    1
    58    25    54    1
    59    27    55    1
    60    28    56    1
    61    29    57    1
    62    30    58    1
    63    33    59    1
    64    33    60    1
    65    35    61    1
    66    36    62    1
