@<TRIPOS>MOLECULE
*****
 62 66 0 0 0
SMALL
USER_CHARGES

@<TRIPOS>ATOM
      1 C1          2.8952    6.0247    6.5312 C.3     1  LIG1        0.0000
      2 O2          1.5970    5.5358    6.2279 O.2     1  LIG1        0.0000
      3 C3          1.4342    5.0559    4.9768 C.3     1  LIG1        0.0000
      4 C4          0.1973    4.5548    4.5854 C.3     1  LIG1        0.0000
      5 C5          0.0236    4.0598    3.2970 C.3     1  LIG1        0.0000
      6 C6          1.0980    4.0753    2.4138 C.3     1  LIG1        0.0000
      7 C7          0.9151    3.5368    1.0040 C.3     1  LIG1        0.0000
      8 C8         -0.1440    4.2718    0.2144 C.3     1  LIG1        0.0000
      9 C9         -1.3846    3.4805    0.5774 C.2     1  LIG1        0.0000
     10 C10        -2.7481    3.9590    0.4596 C.3     1  LIG1        0.0000
     11 C11        -2.9859    5.2411   -0.0246 C.3     1  LIG1        0.0000
     12 C12        -4.2966    5.6952   -0.1366 C.3     1  LIG1        0.0000
     13 C13        -5.3530    4.8701    0.2341 C.3     1  LIG1        0.0000
     14 C14        -6.6597    5.3325    0.1158 C.3     1  LIG1        0.0000
     15 C15        -7.7104    4.5001    0.4867 C.3     1  LIG1        0.0000
     16 C16        -7.4628    3.2206    0.9714 C.3     1  LIG1        0.0000
     17 C17        -6.1544    2.7633    1.0870 C.3     1  LIG1        0.0000
     18 C18        -5.0995    3.5909    0.7169 C.3     1  LIG1        0.0000
     19 C19        -3.7949    3.1234    0.8333 C.3     1  LIG1        0.0000
     20 N20        -1.0414    2.3414    1.0000 N.2     1  LIG1        0.0000
     21 N21         0.2988    2.2145    1.0000 N.am    1  LIG1        0.0000
     22 C22         1.0000    1.0000    1.0000 C.2     1  LIG1        0.0000
     23 O23         0.4000   -0.0392    1.0000 O.2     1  LIG1        0.0000
     24 C24         2.5200    1.0000    1.0000 C.3     1  LIG1        0.0000
     25 N25         3.0100   -0.3859    1.0000 N.pl3   1  LIG1        0.0000
     26 C26         3.2434   -1.0461   -0.2129 C.3     1  LIG1        0.0000
     27 C27         4.1741   -0.5096   -1.0970 C.3     1  LIG1        0.0000
     28 C28         4.4279   -1.1436   -2.3091 C.3     1  LIG1        0.0000
     29 C29         3.7501   -2.3129   -2.6380 C.3     1  LIG1        0.0000
     30 C30         2.8180   -2.8489   -1.7545 C.3     1  LIG1        0.0000
     31 C31         2.5646   -2.2159   -0.5419 C.3     1  LIG1        0.0000
     32 C32         1.5935   -2.7746    0.3787 C.2     1  LIG1        0.0000
     33 N33         0.9256   -3.9260    0.0544 N.am    1  LIG1        0.0000
     34 O34         1.3749   -2.2285    1.4247 O.2     1  LIG1        0.0000
     35 C35         2.3351    4.5763    2.8055 C.3     1  LIG1        0.0000
     36 C36         2.5089    5.0710    4.0940 C.3     1  LIG1        0.0000
     37 H           1.7848    3.5264    0.5106 H       1  LIG1        0.0000
     38 H           2.9147    6.3560    7.4745 H       1  LIG1        0.0000
     39 H           3.5626    5.2878    6.4228 H       1  LIG1        0.0000
     40 H           3.1226    6.7744    5.9097 H       1  LIG1        0.0000
     41 H          -0.5672    4.5503    5.2301 H       1  LIG1        0.0000
     42 H          -0.8628    3.6973    3.0093 H       1  LIG1        0.0000
     43 H          -0.2205    5.2260    0.5036 H       1  LIG1        0.0000
     44 H           0.0397    4.2349   -0.7679 H       1  LIG1        0.0000
     45 H          -2.2227    5.8305   -0.2895 H       1  LIG1        0.0000
     46 H          -4.4788    6.6151   -0.4838 H       1  LIG1        0.0000
     47 H          -6.8414    6.2523   -0.2319 H       1  LIG1        0.0000
     48 H          -8.6526    4.8249    0.4042 H       1  LIG1        0.0000
     49 H          -8.2248    2.6298    1.2365 H       1  LIG1        0.0000
     50 H          -5.9729    1.8435    1.4348 H       1  LIG1        0.0000
     51 H          -3.6129    2.2030    1.1793 H       1  LIG1        0.0000
     52 H           2.8533    1.4714    0.1835 H       1  LIG1        0.0000
     53 H           2.8533    1.4714    1.8165 H       1  LIG1        0.0000
     54 H           3.1767   -0.8573    1.8660 H       1  LIG1        0.0000
     55 H           4.6607    0.3316   -0.8612 H       1  LIG1        0.0000
     56 H           5.0978   -0.7586   -2.9439 H       1  LIG1        0.0000
     57 H           3.9326   -2.7684   -3.5094 H       1  LIG1        0.0000
     58 H           2.3302   -3.6892   -1.9913 H       1  LIG1        0.0000
     59 H           1.1078   -4.3811   -0.8172 H       1  LIG1        0.0000
     60 H           0.2560   -4.3113    0.6893 H       1  LIG1        0.0000
     61 H           3.0996    4.5809    2.1609 H       1  LIG1        0.0000
     62 H           3.3955    5.4329    4.3819 H       1  LIG1        0.0000
@<TRIPOS>BOND
     1     1     2    1
     2     2     3    1
     3     3     4   ar
     4     4     5   ar
     5     5     6   ar
     6     6     7    1
     7     7     8    1
     8     8     9    1
     9     9    10    1
    10    10    11   ar
    11    11    12   ar
    12    12    13   ar
    13    13    14   ar
    14    14    15   ar
    15    15    16   ar
    16    16    17   ar
    17    17    18   ar
    18    18    13   ar
    19    18    19   ar
    20    19    10   ar
    21     9    20    2
    22    20    21    1
    23    21     7    1
    24    21    22   am
    25    22    23    2
    26    22    24    1
    27    24    25    1
    28    25    26    1
    29    26    27   ar
    30    27    28   ar
    31    28    29   ar
    32    29    30   ar
    33    30    31   ar
    34    31    26   ar
    35    31    32    1
    36    32    33   am
    37    32    34    2
    38     6    35   ar
    39    35    36   ar
    40    36     3   ar
    41     7    37    1
    42     1    38    1
    43     1    39    1
    44     1    40    1
    45     4    41    1
    46     5    42    1
    47     8    43    1
    48     8    44    1
    49    11    45    1
    50    12    46    1
    51    14    47    1
    52    15    48    1
    53    16    49    1
    54    17    50    1
    55    19    51    1
    56    24    52    1
    57    24    53    1
    58    25    54    1
    59    27    55    1
    60    28    56    1
    61    29    57    1
    62    30    58    1
    63    33    59    1
    64    33    60    1
    65    35    61    1
    66    36    62    1
