@<TRIPOS>MOLECULE

  34   36
SMALL
USER_CHARGES
@<TRIPOS>ATOM
   1 O1           0.9150    -1.2256     1.0188 O.2          1    LIG   0.0000
   2 C2           0.3150    -0.1864     1.0100 C.2          1    LIG   0.0000
   3 N3           1.0000     1.0000     1.0000 N.am         1    LIG   0.0000
   4 C4           2.4003     1.0000     1.0000 C.ar         1    LIG   0.0000
   5 C5           3.1227     1.6037     2.0255 C.ar         1    LIG   0.0000
   6 N6           4.4644     1.5890     2.0018 N.ar         1    LIG   0.0000
   7 C7           5.1466     1.0032     1.0062 C.ar         1    LIG   0.0000
   8 C8           4.4735     0.3854    -0.0436 C.ar         1    LIG   0.0000
   9 Br9          5.4390    -0.4788    -1.5142 Br           1    LIG   0.0000
  10 C10          3.0828     0.3849    -0.0446 C.ar         1    LIG   0.0000
  11 N11         -1.0816    -0.1864     1.0100 N.am         1    LIG   0.0000
  12 C12         -1.7710    -1.4872     1.0210 C.3          1    LIG   0.0000
  13 C13         -3.1873    -1.3665     1.5602 C.3          1    LIG   0.0000
  14 C14         -4.0866    -0.9675     0.4098 C.3          1    LIG   0.0000
  15 C15         -4.1335     0.5501     0.4099 C.3          1    LIG   0.0000
  16 C16         -3.2146     0.9715     1.5387 C.3          1    LIG   0.0000
  17 C17         -3.3842    -0.1889     2.4908 C.3          1    LIG   0.0000
  18 C18         -1.7983     1.1000     0.9957 C.3          1    LIG   0.0000
  19 H           -3.4914    -2.2205     1.9823 H            1    LIG   0.0000
  20 H           -3.5215     1.8277     1.9541 H            1    LIG   0.0000
  21 H            0.5000     1.8660     0.9927 H            1    LIG   0.0000
  22 H            2.6413     2.0487     2.7806 H            1    LIG   0.0000
  23 H            6.1465     1.0104     1.0186 H            1    LIG   0.0000
  24 H            2.5784    -0.0532    -0.7887 H            1    LIG   0.0000
  25 H           -1.2571    -2.1217     1.5982 H            1    LIG   0.0000
  26 H           -1.8087    -1.8422     0.0869 H            1    LIG   0.0000
  27 H           -5.0043    -1.3420     0.5420 H            1    LIG   0.0000
  28 H           -3.7115    -1.3020    -0.4548 H            1    LIG   0.0000
  29 H           -3.8064     0.9119    -0.4631 H            1    LIG   0.0000
  30 H           -5.0653     0.8729     0.5762 H            1    LIG   0.0000
  31 H           -2.6931    -0.1737     3.2134 H            1    LIG   0.0000
  32 H           -4.2959    -0.1953     2.9016 H            1    LIG   0.0000
  33 H           -1.8429     1.4341     0.0542 H            1    LIG   0.0000
  34 H           -1.2953     1.7558     1.5586 H            1    LIG   0.0000
@<TRIPOS>BOND
   1        1        2 2
   2        2        3 am
   3        3        4 1
   4        4        5 ar
   5        5        6 ar
   6        6        7 ar
   7        7        8 ar
   8        8        9 1
   9        8       10 ar
  10       10        4 ar
  11        2       11 am
  12       11       12 1
  13       12       13 1
  14       13       14 1
  15       14       15 1
  16       15       16 1
  17       16       17 1
  18       17       13 1
  19       16       18 1
  20       18       11 1
  21       13       19 1
  22       16       20 1
  23        3       21 1
  24        5       22 1
  25        7       23 1
  26       10       24 1
  27       12       25 1
  28       12       26 1
  29       14       27 1
  30       14       28 1
  31       15       29 1
  32       15       30 1
  33       17       31 1
  34       17       32 1
  35       18       33 1
  36       18       34 1

@<TRIPOS>MOLECULE

  34   36
SMALL
USER_CHARGES
@<TRIPOS>ATOM
   1 O1           0.9150    -1.2256     1.0188 O.2          1    LIG   0.0000
   2 C2           0.3150    -0.1864     1.0100 C.2          1    LIG   0.0000
   3 N3           1.0000     1.0000     1.0000 N.am         1    LIG   0.0000
   4 C4           2.4003     1.0000     1.0000 C.ar         1    LIG   0.0000
   5 C5           3.1227     1.6037     2.0255 C.ar         1    LIG   0.0000
   6 N6           4.4644     1.5890     2.0018 N.ar         1    LIG   0.0000
   7 C7           5.1466     1.0032     1.0062 C.ar         1    LIG   0.0000
   8 C8           4.4735     0.3854    -0.0436 C.ar         1    LIG   0.0000
   9 Br9          5.4390    -0.4788    -1.5142 Br           1    LIG   0.0000
  10 C10          3.0828     0.3849    -0.0446 C.ar         1    LIG   0.0000
  11 N11         -1.0816    -0.1864     1.0100 N.am         1    LIG   0.0000
  12 C12         -1.7710     1.1143     0.9990 C.3          1    LIG   0.0000
  13 C13         -3.1873     0.9937     0.4598 C.3          1    LIG   0.0000
  14 C14         -4.0866     0.5947     1.6103 C.3          1    LIG   0.0000
  15 C15         -4.1335    -0.9230     1.6102 C.3          1    LIG   0.0000
  16 C16         -3.2146    -1.3443     0.4813 C.3          1    LIG   0.0000
  17 C17         -3.3842    -0.1839    -0.4708 C.3          1    LIG   0.0000
  18 C18         -1.7983    -1.4729     1.0243 C.3          1    LIG   0.0000
  19 H           -3.4914     1.8477     0.0377 H            1    LIG   0.0000
  20 H           -3.5215    -2.2006     0.0659 H            1    LIG   0.0000
  21 H            0.5000     1.8660     0.9927 H            1    LIG   0.0000
  22 H            2.6413     2.0487     2.7806 H            1    LIG   0.0000
  23 H            6.1465     1.0104     1.0186 H            1    LIG   0.0000
  24 H            2.5784    -0.0532    -0.7887 H            1    LIG   0.0000
  25 H           -1.2571     1.7489     0.4218 H            1    LIG   0.0000
  26 H           -1.8087     1.4693     1.9331 H            1    LIG   0.0000
  27 H           -5.0043     0.9692     1.4780 H            1    LIG   0.0000
  28 H           -3.7115     0.9292     2.4748 H            1    LIG   0.0000
  29 H           -3.8064    -1.2847     2.4832 H            1    LIG   0.0000
  30 H           -5.0653    -1.2457     1.4438 H            1    LIG   0.0000
  31 H           -2.6931    -0.1991    -1.1934 H            1    LIG   0.0000
  32 H           -4.2959    -0.1775    -0.8816 H            1    LIG   0.0000
  33 H           -1.8429    -1.8069     1.9658 H            1    LIG   0.0000
  34 H           -1.2953    -2.1287     0.4614 H            1    LIG   0.0000
@<TRIPOS>BOND
   1        1        2 2
   2        2        3 am
   3        3        4 1
   4        4        5 ar
   5        5        6 ar
   6        6        7 ar
   7        7        8 ar
   8        8        9 1
   9        8       10 ar
  10       10        4 ar
  11        2       11 am
  12       11       12 1
  13       12       13 1
  14       13       14 1
  15       14       15 1
  16       15       16 1
  17       16       17 1
  18       17       13 1
  19       16       18 1
  20       18       11 1
  21       13       19 1
  22       16       20 1
  23        3       21 1
  24        5       22 1
  25        7       23 1
  26       10       24 1
  27       12       25 1
  28       12       26 1
  29       14       27 1
  30       14       28 1
  31       15       29 1
  32       15       30 1
  33       17       31 1
  34       17       32 1
  35       18       33 1
  36       18       34 1

@<TRIPOS>MOLECULE

  34   36
SMALL
USER_CHARGES
@<TRIPOS>ATOM
   1 O1           0.7944    -1.1516     1.5378 O.2          1    LIG   0.0000
   2 C2           0.3150    -0.1864     1.0100 C.2          1    LIG   0.0000
   3 N3           1.0000     1.0000     1.0000 N.am         1    LIG   0.0000
   4 C4           2.4003     1.0000     1.0000 C.ar         1    LIG   0.0000
   5 C5           3.1227     1.6037     2.0255 C.ar         1    LIG   0.0000
   6 N6           4.4644     1.5890     2.0018 N.ar         1    LIG   0.0000
   7 C7           5.1466     1.0032     1.0062 C.ar         1    LIG   0.0000
   8 C8           4.4735     0.3854    -0.0436 C.ar         1    LIG   0.0000
   9 Br9          5.4390    -0.4788    -1.5142 Br           1    LIG   0.0000
  10 C10          3.0828     0.3849    -0.0446 C.ar         1    LIG   0.0000
  11 N11         -0.9410    -0.2725     0.4061 N.am         1    LIG   0.0000
  12 C12         -1.9360    -1.0730     1.1342 C.3          1    LIG   0.0000
  13 C13         -3.3269    -0.5085     0.8762 C.3          1    LIG   0.0000
  14 C14         -3.8859    -1.3062    -0.2824 C.3          1    LIG   0.0000
  15 C15         -3.3758    -0.5902    -1.5133 C.3          1    LIG   0.0000
  16 C16         -2.6736     0.6660    -1.0313 C.3          1    LIG   0.0000
  17 C17         -3.3369     0.8942     0.3116 C.3          1    LIG   0.0000
  18 C18         -1.1849     0.4244    -0.8658 C.3          1    LIG   0.0000
  19 H           -3.9084    -0.5819     1.6864 H            1    LIG   0.0000
  20 H           -2.8455     1.4323    -1.6504 H            1    LIG   0.0000
  21 H            0.5000     1.8660     0.9927 H            1    LIG   0.0000
  22 H            2.6413     2.0487     2.7806 H            1    LIG   0.0000
  23 H            6.1465     1.0104     1.0186 H            1    LIG   0.0000
  24 H            2.5784    -0.0532    -0.7887 H            1    LIG   0.0000
  25 H           -1.7389    -1.0394     2.1140 H            1    LIG   0.0000
  26 H           -1.8970    -2.0211     0.8186 H            1    LIG   0.0000
  27 H           -4.8857    -1.3065    -0.2621 H            1    LIG   0.0000
  28 H           -3.5517    -2.2484    -0.2572 H            1    LIG   0.0000
  29 H           -2.7338    -1.1743    -2.0100 H            1    LIG   0.0000
  30 H           -4.1394    -0.3493    -2.1125 H            1    LIG   0.0000
  31 H           -2.8079     1.5236     0.8809 H            1    LIG   0.0000
  32 H           -4.2686     1.2420     0.2073 H            1    LIG   0.0000
  33 H           -0.8519    -0.1374    -1.6231 H            1    LIG   0.0000
  34 H           -0.7029     1.3006    -0.8638 H            1    LIG   0.0000
@<TRIPOS>BOND
   1        1        2 2
   2        2        3 am
   3        3        4 1
   4        4        5 ar
   5        5        6 ar
   6        6        7 ar
   7        7        8 ar
   8        8        9 1
   9        8       10 ar
  10       10        4 ar
  11        2       11 am
  12       11       12 1
  13       12       13 1
  14       13       14 1
  15       14       15 1
  16       15       16 1
  17       16       17 1
  18       17       13 1
  19       16       18 1
  20       18       11 1
  21       13       19 1
  22       16       20 1
  23        3       21 1
  24        5       22 1
  25        7       23 1
  26       10       24 1
  27       12       25 1
  28       12       26 1
  29       14       27 1
  30       14       28 1
  31       15       29 1
  32       15       30 1
  33       17       31 1
  34       17       32 1
  35       18       33 1
  36       18       34 1

@<TRIPOS>MOLECULE

  34   36
SMALL
USER_CHARGES
@<TRIPOS>ATOM
   1 O1           0.7944    -1.1516     1.5378 O.2          1    LIG   0.0000
   2 C2           0.3150    -0.1864     1.0100 C.2          1    LIG   0.0000
   3 N3           1.0000     1.0000     1.0000 N.am         1    LIG   0.0000
   4 C4           2.4003     1.0000     1.0000 C.ar         1    LIG   0.0000
   5 C5           3.1227     1.6037     2.0255 C.ar         1    LIG   0.0000
   6 N6           4.4644     1.5890     2.0018 N.ar         1    LIG   0.0000
   7 C7           5.1466     1.0032     1.0062 C.ar         1    LIG   0.0000
   8 C8           4.4735     0.3854    -0.0436 C.ar         1    LIG   0.0000
   9 Br9          5.4390    -0.4788    -1.5142 Br           1    LIG   0.0000
  10 C10          3.0828     0.3849    -0.0446 C.ar         1    LIG   0.0000
  11 N11         -0.9410    -0.2725     0.4061 N.am         1    LIG   0.0000
  12 C12         -1.0785     0.4503    -0.8665 C.3          1    LIG   0.0000
  13 C13         -2.0765    -0.2779    -1.7571 C.3          1    LIG   0.0000
  14 C14         -3.4121     0.3899    -1.5095 C.3          1    LIG   0.0000
  15 C15         -3.9751    -0.3297    -0.3041 C.3          1    LIG   0.0000
  16 C16         -3.0266    -1.4727     0.0076 C.3          1    LIG   0.0000
  17 C17         -2.3664    -1.7012    -1.3368 C.3          1    LIG   0.0000
  18 C18         -2.0041    -1.0590     1.0496 C.3          1    LIG   0.0000
  19 H           -1.8138    -0.2264    -2.7206 H            1    LIG   0.0000
  20 H           -3.5295    -2.2853     0.3023 H            1    LIG   0.0000
  21 H            0.5000     1.8660     0.9927 H            1    LIG   0.0000
  22 H            2.6413     2.0487     2.7806 H            1    LIG   0.0000
  23 H            6.1465     1.0104     1.0186 H            1    LIG   0.0000
  24 H            2.5784    -0.0532    -0.7887 H            1    LIG   0.0000
  25 H           -0.1905     0.4911    -1.3246 H            1    LIG   0.0000
  26 H           -1.4051     1.3787    -0.6892 H            1    LIG   0.0000
  27 H           -4.0145     0.2804    -2.3002 H            1    LIG   0.0000
  28 H           -3.2904     1.3634    -1.3155 H            1    LIG   0.0000
  29 H           -4.0294     0.2947     0.4752 H            1    LIG   0.0000
  30 H           -4.8867    -0.6854    -0.5103 H            1    LIG   0.0000
  31 H           -1.5266    -2.2367    -1.2479 H            1    LIG   0.0000
  32 H           -2.9850    -2.1553    -1.9779 H            1    LIG   0.0000
  33 H           -2.4499    -0.5049     1.7527 H            1    LIG   0.0000
  34 H           -1.6074    -1.8750     1.4700 H            1    LIG   0.0000
@<TRIPOS>BOND
   1        1        2 2
   2        2        3 am
   3        3        4 1
   4        4        5 ar
   5        5        6 ar
   6        6        7 ar
   7        7        8 ar
   8        8        9 1
   9        8       10 ar
  10       10        4 ar
  11        2       11 am
  12       11       12 1
  13       12       13 1
  14       13       14 1
  15       14       15 1
  16       15       16 1
  17       16       17 1
  18       17       13 1
  19       16       18 1
  20       18       11 1
  21       13       19 1
  22       16       20 1
  23        3       21 1
  24        5       22 1
  25        7       23 1
  26       10       24 1
  27       12       25 1
  28       12       26 1
  29       14       27 1
  30       14       28 1
  31       15       29 1
  32       15       30 1
  33       17       31 1
  34       17       32 1
  35       18       33 1
  36       18       34 1

@<TRIPOS>MOLECULE

  34   36
SMALL
USER_CHARGES
@<TRIPOS>ATOM
   1 O1           0.7944    -1.1516     1.5378 O.2          1    LIG   0.0000
   2 C2           0.3150    -0.1864     1.0100 C.2          1    LIG   0.0000
   3 N3           1.0000     1.0000     1.0000 N.am         1    LIG   0.0000
   4 C4           2.4003     1.0000     1.0000 C.ar         1    LIG   0.0000
   5 C5           3.1227     1.6037     2.0255 C.ar         1    LIG   0.0000
   6 N6           4.4644     1.5890     2.0018 N.ar         1    LIG   0.0000
   7 C7           5.1466     1.0032     1.0062 C.ar         1    LIG   0.0000
   8 C8           4.4735     0.3854    -0.0436 C.ar         1    LIG   0.0000
   9 Br9          5.4390    -0.4788    -1.5142 Br           1    LIG   0.0000
  10 C10          3.0828     0.3849    -0.0446 C.ar         1    LIG   0.0000
  11 N11         -0.9439    -0.2727     0.4047 N.am         1    LIG   0.0000
  12 C12         -1.9917    -1.0565     1.0739 C.3          1    LIG   0.0000
  13 C13         -2.7384    -1.8324     0.0001 C.3          1    LIG   0.0000
  14 C14         -1.7981    -2.7007    -0.8059 C.3          1    LIG   0.0000
  15 C15         -1.2640    -1.8124    -1.9109 C.3          1    LIG   0.0000
  16 C16         -2.0263    -0.5114    -1.7748 C.3          1    LIG   0.0000
  17 C17         -3.3004    -1.0260    -1.1473 C.3          1    LIG   0.0000
  18 C18         -1.1791     0.3906    -0.8890 C.3          1    LIG   0.0000
  19 H           -3.4565    -2.3919     0.4140 H            1    LIG   0.0000
  20 H           -2.1994    -0.0925    -2.6662 H            1    LIG   0.0000
  21 H            0.5000     1.8660     0.9927 H            1    LIG   0.0000
  22 H            2.6413     2.0487     2.7806 H            1    LIG   0.0000
  23 H            6.1465     1.0104     1.0186 H            1    LIG   0.0000
  24 H            2.5784    -0.0532    -0.7887 H            1    LIG   0.0000
  25 H           -2.6213    -0.4453     1.5536 H            1    LIG   0.0000
  26 H           -1.5788    -1.6901     1.7282 H            1    LIG   0.0000
  27 H           -2.2896    -3.4809    -1.1928 H            1    LIG   0.0000
  28 H           -1.0492    -3.0303    -0.2310 H            1    LIG   0.0000
  29 H           -0.2829    -1.6582    -1.7941 H            1    LIG   0.0000
  30 H           -1.4322    -2.2258    -2.8058 H            1    LIG   0.0000
  31 H           -3.8803    -0.2784    -0.8235 H            1    LIG   0.0000
  32 H           -3.8188    -1.5992    -1.7819 H            1    LIG   0.0000
  33 H           -0.3027     0.5691    -1.3363 H            1    LIG   0.0000
  34 H           -1.6584     1.2551    -0.7381 H            1    LIG   0.0000
@<TRIPOS>BOND
   1        1        2 2
   2        2        3 am
   3        3        4 1
   4        4        5 ar
   5        5        6 ar
   6        6        7 ar
   7        7        8 ar
   8        8        9 1
   9        8       10 ar
  10       10        4 ar
  11        2       11 am
  12       11       12 1
  13       12       13 1
  14       13       14 1
  15       14       15 1
  16       15       16 1
  17       16       17 1
  18       17       13 1
  19       16       18 1
  20       18       11 1
  21       13       19 1
  22       16       20 1
  23        3       21 1
  24        5       22 1
  25        7       23 1
  26       10       24 1
  27       12       25 1
  28       12       26 1
  29       14       27 1
  30       14       28 1
  31       15       29 1
  32       15       30 1
  33       17       31 1
  34       17       32 1
  35       18       33 1
  36       18       34 1

@<TRIPOS>MOLECULE

  34   36
SMALL
USER_CHARGES
@<TRIPOS>ATOM
   1 O1           0.7944    -1.1516     1.5378 O.2          1    LIG   0.0000
   2 C2           0.3150    -0.1864     1.0100 C.2          1    LIG   0.0000
   3 N3           1.0000     1.0000     1.0000 N.am         1    LIG   0.0000
   4 C4           2.4003     1.0000     1.0000 C.ar         1    LIG   0.0000
   5 C5           3.1227     1.6037     2.0255 C.ar         1    LIG   0.0000
   6 N6           4.4644     1.5890     2.0018 N.ar         1    LIG   0.0000
   7 C7           5.1466     1.0032     1.0062 C.ar         1    LIG   0.0000
   8 C8           4.4735     0.3854    -0.0436 C.ar         1    LIG   0.0000
   9 Br9          5.4390    -0.4788    -1.5142 Br           1    LIG   0.0000
  10 C10          3.0828     0.3849    -0.0446 C.ar         1    LIG   0.0000
  11 N11         -0.9439    -0.2727     0.4047 N.am         1    LIG   0.0000
  12 C12         -1.1579     0.4245    -0.8712 C.3          1    LIG   0.0000
  13 C13         -2.5412     1.0545    -0.8216 C.3          1    LIG   0.0000
  14 C14         -2.6833     1.9774     0.3682 C.3          1    LIG   0.0000
  15 C15         -3.1144     1.0962     1.5228 C.3          1    LIG   0.0000
  16 C16         -3.3354    -0.2722     0.9138 C.3          1    LIG   0.0000
  17 C17         -3.6920     0.1306    -0.4977 C.3          1    LIG   0.0000
  18 C18         -2.0223    -1.0260     1.0668 C.3          1    LIG   0.0000
  19 H           -2.7252     1.5521    -1.6692 H            1    LIG   0.0000
  20 H           -4.0896    -0.7547     1.3594 H            1    LIG   0.0000
  21 H            0.5000     1.8660     0.9927 H            1    LIG   0.0000
  22 H            2.6413     2.0487     2.7806 H            1    LIG   0.0000
  23 H            6.1465     1.0104     1.0186 H            1    LIG   0.0000
  24 H            2.5784    -0.0532    -0.7887 H            1    LIG   0.0000
  25 H           -1.1061    -0.2262    -1.6288 H            1    LIG   0.0000
  26 H           -0.4639     1.1340    -0.9932 H            1    LIG   0.0000
  27 H           -3.3748     2.6765     0.1863 H            1    LIG   0.0000
  28 H           -1.8095     2.4183     0.5736 H            1    LIG   0.0000
  29 H           -2.3997     1.0583     2.2213 H            1    LIG   0.0000
  30 H           -3.9605     1.4401     1.9300 H            1    LIG   0.0000
  31 H           -3.7157    -0.6583    -1.1117 H            1    LIG   0.0000
  32 H           -4.5699     0.6081    -0.5345 H            1    LIG   0.0000
  33 H           -1.8087    -1.1298     2.0382 H            1    LIG   0.0000
  34 H           -2.1054    -1.9291     0.6454 H            1    LIG   0.0000
@<TRIPOS>BOND
   1        1        2 2
   2        2        3 am
   3        3        4 1
   4        4        5 ar
   5        5        6 ar
   6        6        7 ar
   7        7        8 ar
   8        8        9 1
   9        8       10 ar
  10       10        4 ar
  11        2       11 am
  12       11       12 1
  13       12       13 1
  14       13       14 1
  15       14       15 1
  16       15       16 1
  17       16       17 1
  18       17       13 1
  19       16       18 1
  20       18       11 1
  21       13       19 1
  22       16       20 1
  23        3       21 1
  24        5       22 1
  25        7       23 1
  26       10       24 1
  27       12       25 1
  28       12       26 1
  29       14       27 1
  30       14       28 1
  31       15       29 1
  32       15       30 1
  33       17       31 1
  34       17       32 1
  35       18       33 1
  36       18       34 1

@<TRIPOS>MOLECULE

  34   36
SMALL
USER_CHARGES
@<TRIPOS>ATOM
   1 O1           0.7944    -1.1604     0.4986 O.2          1    LIG   0.0000
   2 C2           0.3150    -0.1864     1.0100 C.2          1    LIG   0.0000
   3 N3           1.0000     1.0000     1.0000 N.am         1    LIG   0.0000
   4 C4           2.4003     1.0000     1.0000 C.ar         1    LIG   0.0000
   5 C5           3.1227     1.6037     2.0255 C.ar         1    LIG   0.0000
   6 N6           4.4644     1.5890     2.0018 N.ar         1    LIG   0.0000
   7 C7           5.1466     1.0032     1.0062 C.ar         1    LIG   0.0000
   8 C8           4.4735     0.3854    -0.0436 C.ar         1    LIG   0.0000
   9 Br9          5.4390    -0.4788    -1.5142 Br           1    LIG   0.0000
  10 C10          3.0828     0.3849    -0.0446 C.ar         1    LIG   0.0000
  11 N11         -0.9439    -0.2625     1.6167 N.am         1    LIG   0.0000
  12 C12         -1.9917    -1.0574     0.9608 C.3          1    LIG   0.0000
  13 C13         -3.2957    -0.2846     1.0829 C.3          1    LIG   0.0000
  14 C14         -3.1714     1.1017     0.4911 C.3          1    LIG   0.0000
  15 C15         -2.6253     1.9754     1.6019 C.3          1    LIG   0.0000
  16 C16         -2.5898     1.0831     2.8246 C.3          1    LIG   0.0000
  17 C17         -3.7074     0.1281     2.4768 C.3          1    LIG   0.0000
  18 C18         -1.1969     0.4716     2.8681 C.3          1    LIG   0.0000
  19 H           -4.0376    -0.7856     0.6373 H            1    LIG   0.0000
  20 H           -2.7917     1.5959     3.6591 H            1    LIG   0.0000
  21 H            0.5000     1.8660     0.9927 H            1    LIG   0.0000
  22 H            2.6413     2.0487     2.7806 H            1    LIG   0.0000
  23 H            6.1465     1.0104     1.0186 H            1    LIG   0.0000
  24 H            2.5784    -0.0532    -0.7887 H            1    LIG   0.0000
  25 H           -2.0781    -1.9462     1.4110 H            1    LIG   0.0000
  26 H           -1.7641    -1.1929    -0.0035 H            1    LIG   0.0000
  27 H           -4.0660     1.4351     0.1935 H            1    LIG   0.0000
  28 H           -2.5431     1.0936    -0.2868 H            1    LIG   0.0000
  29 H           -1.7060     2.2973     1.3755 H            1    LIG   0.0000
  30 H           -3.2245     2.7607     1.7577 H            1    LIG   0.0000
  31 H           -3.7326    -0.6531     3.1005 H            1    LIG   0.0000
  32 H           -4.5969     0.5850     2.4786 H            1    LIG   0.0000
  33 H           -0.5172     1.1977     2.9719 H            1    LIG   0.0000
  34 H           -1.1332    -0.1579     3.6425 H            1    LIG   0.0000
@<TRIPOS>BOND
   1        1        2 2
   2        2        3 am
   3        3        4 1
   4        4        5 ar
   5        5        6 ar
   6        6        7 ar
   7        7        8 ar
   8        8        9 1
   9        8       10 ar
  10       10        4 ar
  11        2       11 am
  12       11       12 1
  13       12       13 1
  14       13       14 1
  15       14       15 1
  16       15       16 1
  17       16       17 1
  18       17       13 1
  19       16       18 1
  20       18       11 1
  21       13       19 1
  22       16       20 1
  23        3       21 1
  24        5       22 1
  25        7       23 1
  26       10       24 1
  27       12       25 1
  28       12       26 1
  29       14       27 1
  30       14       28 1
  31       15       29 1
  32       15       30 1
  33       17       31 1
  34       17       32 1
  35       18       33 1
  36       18       34 1

@<TRIPOS>MOLECULE

  34   36
SMALL
USER_CHARGES
@<TRIPOS>ATOM
   1 O1           0.7944    -1.1604     0.4986 O.2          1    LIG   0.0000
   2 C2           0.3150    -0.1864     1.0100 C.2          1    LIG   0.0000
   3 N3           1.0000     1.0000     1.0000 N.am         1    LIG   0.0000
   4 C4           2.4003     1.0000     1.0000 C.ar         1    LIG   0.0000
   5 C5           3.1227     1.6037     2.0255 C.ar         1    LIG   0.0000
   6 N6           4.4644     1.5890     2.0018 N.ar         1    LIG   0.0000
   7 C7           5.1466     1.0032     1.0062 C.ar         1    LIG   0.0000
   8 C8           4.4735     0.3854    -0.0436 C.ar         1    LIG   0.0000
   9 Br9          5.4390    -0.4788    -1.5142 Br           1    LIG   0.0000
  10 C10          3.0828     0.3849    -0.0446 C.ar         1    LIG   0.0000
  11 N11         -0.9439    -0.2625     1.6167 N.am         1    LIG   0.0000
  12 C12         -1.1579     0.4562     2.8807 C.3          1    LIG   0.0000
  13 C13         -1.9838    -0.4453     3.7850 C.3          1    LIG   0.0000
  14 C14         -1.3099    -1.7834     3.9921 C.3          1    LIG   0.0000
  15 C15         -1.7531    -2.6508     2.8317 C.3          1    LIG   0.0000
  16 C16         -2.7719    -1.8180     2.0829 C.3          1    LIG   0.0000
  17 C17         -3.2850    -0.9616     3.2165 C.3          1    LIG   0.0000
  18 C18         -2.0045    -1.0759     0.9983 C.3          1    LIG   0.0000
  19 H           -2.1440     0.0012     4.6653 H            1    LIG   0.0000
  20 H           -3.4974    -2.3868     1.6953 H            1    LIG   0.0000
  21 H            0.5000     1.8660     0.9927 H            1    LIG   0.0000
  22 H            2.6413     2.0487     2.7806 H            1    LIG   0.0000
  23 H            6.1465     1.0104     1.0186 H            1    LIG   0.0000
  24 H            2.5784    -0.0532    -0.7887 H            1    LIG   0.0000
  25 H           -1.6493     1.3100     2.7089 H            1    LIG   0.0000
  26 H           -0.2785     0.6586     3.3115 H            1    LIG   0.0000
  27 H           -1.5983    -2.1883     4.8598 H            1    LIG   0.0000
  28 H           -0.3156    -1.6772     3.9880 H            1    LIG   0.0000
  29 H           -0.9766    -2.8703     2.2409 H            1    LIG   0.0000
  30 H           -2.1682    -3.4974     3.1647 H            1    LIG   0.0000
  31 H           -3.8634    -0.2168     2.8837 H            1    LIG   0.0000
  32 H           -3.7918    -1.5028     3.8876 H            1    LIG   0.0000
  33 H           -1.5942    -1.7362     0.3692 H            1    LIG   0.0000
  34 H           -2.6306    -0.4805     0.4949 H            1    LIG   0.0000
@<TRIPOS>BOND
   1        1        2 2
   2        2        3 am
   3        3        4 1
   4        4        5 ar
   5        5        6 ar
   6        6        7 ar
   7        7        8 ar
   8        8        9 1
   9        8       10 ar
  10       10        4 ar
  11        2       11 am
  12       11       12 1
  13       12       13 1
  14       13       14 1
  15       14       15 1
  16       15       16 1
  17       16       17 1
  18       17       13 1
  19       16       18 1
  20       18       11 1
  21       13       19 1
  22       16       20 1
  23        3       21 1
  24        5       22 1
  25        7       23 1
  26       10       24 1
  27       12       25 1
  28       12       26 1
  29       14       27 1
  30       14       28 1
  31       15       29 1
  32       15       30 1
  33       17       31 1
  34       17       32 1
  35       18       33 1
  36       18       34 1

@<TRIPOS>MOLECULE

  34   36
SMALL
USER_CHARGES
@<TRIPOS>ATOM
   1 O1           0.9150    -1.2256     1.0188 O.2          1    LIG   0.0000
   2 C2           0.3150    -0.1864     1.0100 C.2          1    LIG   0.0000
   3 N3           1.0000     1.0000     1.0000 N.am         1    LIG   0.0000
   4 C4           2.4003     1.0000     1.0000 C.ar         1    LIG   0.0000
   5 C5           3.1227     1.5863    -0.0355 C.ar         1    LIG   0.0000
   6 N6           4.4644     1.5730    -0.0110 N.ar         1    LIG   0.0000
   7 C7           5.1466     1.0038     0.9942 C.ar         1    LIG   0.0000
   8 C8           4.4735     0.4035     2.0541 C.ar         1    LIG   0.0000
   9 Br9          5.4390    -0.4380     3.5378 Br           1    LIG   0.0000
  10 C10          3.0828     0.4029     2.0550 C.ar         1    LIG   0.0000
  11 N11         -1.0816    -0.1864     1.0100 N.am         1    LIG   0.0000
  12 C12         -1.7710    -1.4872     1.0210 C.3          1    LIG   0.0000
  13 C13         -3.1873    -1.3665     1.5602 C.3          1    LIG   0.0000
  14 C14         -4.0866    -0.9675     0.4098 C.3          1    LIG   0.0000
  15 C15         -4.1335     0.5501     0.4099 C.3          1    LIG   0.0000
  16 C16         -3.2146     0.9715     1.5387 C.3          1    LIG   0.0000
  17 C17         -3.3842    -0.1889     2.4908 C.3          1    LIG   0.0000
  18 C18         -1.7983     1.1000     0.9957 C.3          1    LIG   0.0000
  19 H           -3.4914    -2.2205     1.9823 H            1    LIG   0.0000
  20 H           -3.5215     1.8277     1.9541 H            1    LIG   0.0000
  21 H            0.5000     1.8660     0.9927 H            1    LIG   0.0000
  22 H            2.6413     2.0178    -0.7985 H            1    LIG   0.0000
  23 H            6.1465     1.0109     0.9817 H            1    LIG   0.0000
  24 H            2.5784    -0.0225     2.8064 H            1    LIG   0.0000
  25 H           -1.2571    -2.1217     1.5982 H            1    LIG   0.0000
  26 H           -1.8087    -1.8422     0.0869 H            1    LIG   0.0000
  27 H           -5.0043    -1.3420     0.5420 H            1    LIG   0.0000
  28 H           -3.7115    -1.3020    -0.4548 H            1    LIG   0.0000
  29 H           -3.8064     0.9119    -0.4631 H            1    LIG   0.0000
  30 H           -5.0653     0.8729     0.5762 H            1    LIG   0.0000
  31 H           -2.6931    -0.1737     3.2134 H            1    LIG   0.0000
  32 H           -4.2959    -0.1953     2.9016 H            1    LIG   0.0000
  33 H           -1.8429     1.4341     0.0542 H            1    LIG   0.0000
  34 H           -1.2953     1.7558     1.5586 H            1    LIG   0.0000
@<TRIPOS>BOND
   1        1        2 2
   2        2        3 am
   3        3        4 1
   4        4        5 ar
   5        5        6 ar
   6        6        7 ar
   7        7        8 ar
   8        8        9 1
   9        8       10 ar
  10       10        4 ar
  11        2       11 am
  12       11       12 1
  13       12       13 1
  14       13       14 1
  15       14       15 1
  16       15       16 1
  17       16       17 1
  18       17       13 1
  19       16       18 1
  20       18       11 1
  21       13       19 1
  22       16       20 1
  23        3       21 1
  24        5       22 1
  25        7       23 1
  26       10       24 1
  27       12       25 1
  28       12       26 1
  29       14       27 1
  30       14       28 1
  31       15       29 1
  32       15       30 1
  33       17       31 1
  34       17       32 1
  35       18       33 1
  36       18       34 1

@<TRIPOS>MOLECULE

  34   36
SMALL
USER_CHARGES
@<TRIPOS>ATOM
   1 O1           0.9150    -1.2256     1.0188 O.2          1    LIG   0.0000
   2 C2           0.3150    -0.1864     1.0100 C.2          1    LIG   0.0000
   3 N3           1.0000     1.0000     1.0000 N.am         1    LIG   0.0000
   4 C4           2.4003     1.0000     1.0000 C.ar         1    LIG   0.0000
   5 C5           3.1227     1.5863    -0.0355 C.ar         1    LIG   0.0000
   6 N6           4.4644     1.5730    -0.0110 N.ar         1    LIG   0.0000
   7 C7           5.1466     1.0038     0.9942 C.ar         1    LIG   0.0000
   8 C8           4.4735     0.4035     2.0541 C.ar         1    LIG   0.0000
   9 Br9          5.4390    -0.4380     3.5378 Br           1    LIG   0.0000
  10 C10          3.0828     0.4029     2.0550 C.ar         1    LIG   0.0000
  11 N11         -1.0816    -0.1864     1.0100 N.am         1    LIG   0.0000
  12 C12         -1.7710     1.1143     0.9990 C.3          1    LIG   0.0000
  13 C13         -3.1873     0.9937     0.4598 C.3          1    LIG   0.0000
  14 C14         -4.0866     0.5947     1.6103 C.3          1    LIG   0.0000
  15 C15         -4.1335    -0.9230     1.6102 C.3          1    LIG   0.0000
  16 C16         -3.2146    -1.3443     0.4813 C.3          1    LIG   0.0000
  17 C17         -3.3842    -0.1839    -0.4708 C.3          1    LIG   0.0000
  18 C18         -1.7983    -1.4729     1.0243 C.3          1    LIG   0.0000
  19 H           -3.4914     1.8477     0.0377 H            1    LIG   0.0000
  20 H           -3.5215    -2.2006     0.0659 H            1    LIG   0.0000
  21 H            0.5000     1.8660     0.9927 H            1    LIG   0.0000
  22 H            2.6413     2.0178    -0.7985 H            1    LIG   0.0000
  23 H            6.1465     1.0109     0.9817 H            1    LIG   0.0000
  24 H            2.5784    -0.0225     2.8064 H            1    LIG   0.0000
  25 H           -1.2571     1.7489     0.4218 H            1    LIG   0.0000
  26 H           -1.8087     1.4693     1.9331 H            1    LIG   0.0000
  27 H           -5.0043     0.9692     1.4780 H            1    LIG   0.0000
  28 H           -3.7115     0.9292     2.4748 H            1    LIG   0.0000
  29 H           -3.8064    -1.2847     2.4832 H            1    LIG   0.0000
  30 H           -5.0653    -1.2457     1.4438 H            1    LIG   0.0000
  31 H           -2.6931    -0.1991    -1.1934 H            1    LIG   0.0000
  32 H           -4.2959    -0.1775    -0.8816 H            1    LIG   0.0000
  33 H           -1.8429    -1.8069     1.9658 H            1    LIG   0.0000
  34 H           -1.2953    -2.1287     0.4614 H            1    LIG   0.0000
@<TRIPOS>BOND
   1        1        2 2
   2        2        3 am
   3        3        4 1
   4        4        5 ar
   5        5        6 ar
   6        6        7 ar
   7        7        8 ar
   8        8        9 1
   9        8       10 ar
  10       10        4 ar
  11        2       11 am
  12       11       12 1
  13       12       13 1
  14       13       14 1
  15       14       15 1
  16       15       16 1
  17       16       17 1
  18       17       13 1
  19       16       18 1
  20       18       11 1
  21       13       19 1
  22       16       20 1
  23        3       21 1
  24        5       22 1
  25        7       23 1
  26       10       24 1
  27       12       25 1
  28       12       26 1
  29       14       27 1
  30       14       28 1
  31       15       29 1
  32       15       30 1
  33       17       31 1
  34       17       32 1
  35       18       33 1
  36       18       34 1

@<TRIPOS>MOLECULE

  34   36
SMALL
USER_CHARGES
@<TRIPOS>ATOM
   1 O1           0.9150    -1.2256     1.0188 O.2          1    LIG   0.0000
   2 C2           0.3150    -0.1864     1.0100 C.2          1    LIG   0.0000
   3 N3           1.0000     1.0000     1.0000 N.am         1    LIG   0.0000
   4 C4           2.4003     1.0000     1.0000 C.ar         1    LIG   0.0000
   5 C5           3.1227     1.5863    -0.0355 C.ar         1    LIG   0.0000
   6 N6           4.4644     1.5730    -0.0110 N.ar         1    LIG   0.0000
   7 C7           5.1466     1.0038     0.9942 C.ar         1    LIG   0.0000
   8 C8           4.4735     0.4035     2.0541 C.ar         1    LIG   0.0000
   9 Br9          5.4390    -0.4380     3.5378 Br           1    LIG   0.0000
  10 C10          3.0828     0.4029     2.0550 C.ar         1    LIG   0.0000
  11 N11         -1.0845    -0.1864     1.0100 N.am         1    LIG   0.0000
  12 C12         -1.7859     0.8099     1.8318 C.3          1    LIG   0.0000
  13 C13         -2.9698     0.1130     2.4839 C.3          1    LIG   0.0000
  14 C14         -2.5262    -1.0871     3.2904 C.3          1    LIG   0.0000
  15 C15         -2.4689    -2.2419     2.3113 C.3          1    LIG   0.0000
  16 C16         -3.0155    -1.6864     1.0133 C.3          1    LIG   0.0000
  17 C17         -3.9219    -0.6078     1.5583 C.3          1    LIG   0.0000
  18 C18         -1.8147    -1.1921     0.2198 C.3          1    LIG   0.0000
  19 H           -3.4713     0.7540     3.0650 H            1    LIG   0.0000
  20 H           -3.5310    -2.3774     0.5066 H            1    LIG   0.0000
  21 H            0.5000     1.8660     0.9927 H            1    LIG   0.0000
  22 H            2.6413     2.0178    -0.7985 H            1    LIG   0.0000
  23 H            6.1465     1.0109     0.9817 H            1    LIG   0.0000
  24 H            2.5784    -0.0225     2.8064 H            1    LIG   0.0000
  25 H           -2.1071     1.5621     1.2564 H            1    LIG   0.0000
  26 H           -1.1706     1.1671     2.5345 H            1    LIG   0.0000
  27 H           -3.1837    -1.2800     4.0187 H            1    LIG   0.0000
  28 H           -1.6242    -0.9242     3.6903 H            1    LIG   0.0000
  29 H           -1.5263    -2.5533     2.1906 H            1    LIG   0.0000
  30 H           -3.0327    -3.0028     2.6326 H            1    LIG   0.0000
  31 H           -4.2574    -0.0066     0.8331 H            1    LIG   0.0000
  32 H           -4.6981    -0.9950     2.0561 H            1    LIG   0.0000
  33 H           -1.2088    -1.9616     0.0181 H            1    LIG   0.0000
  34 H           -2.1273    -0.7806    -0.6363 H            1    LIG   0.0000
@<TRIPOS>BOND
   1        1        2 2
   2        2        3 am
   3        3        4 1
   4        4        5 ar
   5        5        6 ar
   6        6        7 ar
   7        7        8 ar
   8        8        9 1
   9        8       10 ar
  10       10        4 ar
  11        2       11 am
  12       11       12 1
  13       12       13 1
  14       13       14 1
  15       14       15 1
  16       15       16 1
  17       16       17 1
  18       17       13 1
  19       16       18 1
  20       18       11 1
  21       13       19 1
  22       16       20 1
  23        3       21 1
  24        5       22 1
  25        7       23 1
  26       10       24 1
  27       12       25 1
  28       12       26 1
  29       14       27 1
  30       14       28 1
  31       15       29 1
  32       15       30 1
  33       17       31 1
  34       17       32 1
  35       18       33 1
  36       18       34 1

@<TRIPOS>MOLECULE

  34   36
SMALL
USER_CHARGES
@<TRIPOS>ATOM
   1 O1           0.9150    -1.2256     1.0188 O.2          1    LIG   0.0000
   2 C2           0.3150    -0.1864     1.0100 C.2          1    LIG   0.0000
   3 N3           1.0000     1.0000     1.0000 N.am         1    LIG   0.0000
   4 C4           2.4003     1.0000     1.0000 C.ar         1    LIG   0.0000
   5 C5           3.1227     1.5863    -0.0355 C.ar         1    LIG   0.0000
   6 N6           4.4644     1.5730    -0.0110 N.ar         1    LIG   0.0000
   7 C7           5.1466     1.0038     0.9942 C.ar         1    LIG   0.0000
   8 C8           4.4735     0.4035     2.0541 C.ar         1    LIG   0.0000
   9 Br9          5.4390    -0.4380     3.5378 Br           1    LIG   0.0000
  10 C10          3.0828     0.4029     2.0550 C.ar         1    LIG   0.0000
  11 N11         -1.0835    -0.1864     1.0100 N.am         1    LIG   0.0000
  12 C12         -1.7772    -1.1868     0.1849 C.3          1    LIG   0.0000
  13 C13         -2.9698    -0.4847    -0.4466 C.3          1    LIG   0.0000
  14 C14         -2.5053     0.7275    -1.2370 C.3          1    LIG   0.0000
  15 C15         -2.4582     1.8464    -0.2249 C.3          1    LIG   0.0000
  16 C16         -3.0476     1.2763     1.0478 C.3          1    LIG   0.0000
  17 C17         -3.9410     0.1941     0.4900 C.3          1    LIG   0.0000
  18 C18         -1.8126     0.8126     1.8106 C.3          1    LIG   0.0000
  19 H           -3.4596    -1.1168    -1.0471 H            1    LIG   0.0000
  20 H           -3.5663     1.9619     1.5587 H            1    LIG   0.0000
  21 H            0.5000     1.8660     0.9927 H            1    LIG   0.0000
  22 H            2.6413     2.0178    -0.7985 H            1    LIG   0.0000
  23 H            6.1465     1.0109     0.9817 H            1    LIG   0.0000
  24 H            2.5784    -0.0225     2.8064 H            1    LIG   0.0000
  25 H           -2.0877    -1.9476     0.7547 H            1    LIG   0.0000
  26 H           -1.1643    -1.5313    -0.5262 H            1    LIG   0.0000
  27 H           -3.1522     0.9407    -1.9692 H            1    LIG   0.0000
  28 H           -1.5993     0.5676    -1.6289 H            1    LIG   0.0000
  29 H           -1.5140     2.1376    -0.0713 H            1    LIG   0.0000
  30 H           -3.0000     2.6251    -0.5412 H            1    LIG   0.0000
  31 H           -4.2637    -0.4265     1.2046 H            1    LIG   0.0000
  32 H           -4.7252     0.5751     0.0003 H            1    LIG   0.0000
  33 H           -1.2171     1.5962     1.9877 H            1    LIG   0.0000
  34 H           -2.0921     0.4033     2.6792 H            1    LIG   0.0000
@<TRIPOS>BOND
   1        1        2 2
   2        2        3 am
   3        3        4 1
   4        4        5 ar
   5        5        6 ar
   6        6        7 ar
   7        7        8 ar
   8        8        9 1
   9        8       10 ar
  10       10        4 ar
  11        2       11 am
  12       11       12 1
  13       12       13 1
  14       13       14 1
  15       14       15 1
  16       15       16 1
  17       16       17 1
  18       17       13 1
  19       16       18 1
  20       18       11 1
  21       13       19 1
  22       16       20 1
  23        3       21 1
  24        5       22 1
  25        7       23 1
  26       10       24 1
  27       12       25 1
  28       12       26 1
  29       14       27 1
  30       14       28 1
  31       15       29 1
  32       15       30 1
  33       17       31 1
  34       17       32 1
  35       18       33 1
  36       18       34 1

@<TRIPOS>MOLECULE

  34   36
SMALL
USER_CHARGES
@<TRIPOS>ATOM
   1 O1           0.7944    -1.1516     1.5378 O.2          1    LIG   0.0000
   2 C2           0.3150    -0.1864     1.0100 C.2          1    LIG   0.0000
   3 N3           1.0000     1.0000     1.0000 N.am         1    LIG   0.0000
   4 C4           2.4003     1.0000     1.0000 C.ar         1    LIG   0.0000
   5 C5           3.1227     1.5863    -0.0355 C.ar         1    LIG   0.0000
   6 N6           4.4644     1.5730    -0.0110 N.ar         1    LIG   0.0000
   7 C7           5.1466     1.0038     0.9942 C.ar         1    LIG   0.0000
   8 C8           4.4735     0.4035     2.0541 C.ar         1    LIG   0.0000
   9 Br9          5.4390    -0.4380     3.5378 Br           1    LIG   0.0000
  10 C10          3.0828     0.4029     2.0550 C.ar         1    LIG   0.0000
  11 N11         -0.9410    -0.2725     0.4061 N.am         1    LIG   0.0000
  12 C12         -1.0785     0.4503    -0.8665 C.3          1    LIG   0.0000
  13 C13         -2.0765    -0.2779    -1.7571 C.3          1    LIG   0.0000
  14 C14         -3.4121     0.3899    -1.5095 C.3          1    LIG   0.0000
  15 C15         -3.9751    -0.3297    -0.3041 C.3          1    LIG   0.0000
  16 C16         -3.0266    -1.4727     0.0076 C.3          1    LIG   0.0000
  17 C17         -2.3664    -1.7012    -1.3368 C.3          1    LIG   0.0000
  18 C18         -2.0041    -1.0590     1.0496 C.3          1    LIG   0.0000
  19 H           -1.8138    -0.2264    -2.7206 H            1    LIG   0.0000
  20 H           -3.5295    -2.2853     0.3023 H            1    LIG   0.0000
  21 H            0.5000     1.8660     0.9927 H            1    LIG   0.0000
  22 H            2.6413     2.0178    -0.7985 H            1    LIG   0.0000
  23 H            6.1465     1.0109     0.9817 H            1    LIG   0.0000
  24 H            2.5784    -0.0225     2.8064 H            1    LIG   0.0000
  25 H           -0.1905     0.4911    -1.3246 H            1    LIG   0.0000
  26 H           -1.4051     1.3787    -0.6892 H            1    LIG   0.0000
  27 H           -4.0145     0.2804    -2.3002 H            1    LIG   0.0000
  28 H           -3.2904     1.3634    -1.3155 H            1    LIG   0.0000
  29 H           -4.0294     0.2947     0.4752 H            1    LIG   0.0000
  30 H           -4.8867    -0.6854    -0.5103 H            1    LIG   0.0000
  31 H           -1.5266    -2.2367    -1.2479 H            1    LIG   0.0000
  32 H           -2.9850    -2.1553    -1.9779 H            1    LIG   0.0000
  33 H           -2.4499    -0.5049     1.7527 H            1    LIG   0.0000
  34 H           -1.6074    -1.8750     1.4700 H            1    LIG   0.0000
@<TRIPOS>BOND
   1        1        2 2
   2        2        3 am
   3        3        4 1
   4        4        5 ar
   5        5        6 ar
   6        6        7 ar
   7        7        8 ar
   8        8        9 1
   9        8       10 ar
  10       10        4 ar
  11        2       11 am
  12       11       12 1
  13       12       13 1
  14       13       14 1
  15       14       15 1
  16       15       16 1
  17       16       17 1
  18       17       13 1
  19       16       18 1
  20       18       11 1
  21       13       19 1
  22       16       20 1
  23        3       21 1
  24        5       22 1
  25        7       23 1
  26       10       24 1
  27       12       25 1
  28       12       26 1
  29       14       27 1
  30       14       28 1
  31       15       29 1
  32       15       30 1
  33       17       31 1
  34       17       32 1
  35       18       33 1
  36       18       34 1

@<TRIPOS>MOLECULE

  34   36
SMALL
USER_CHARGES
@<TRIPOS>ATOM
   1 O1           0.7944    -1.1604     0.4986 O.2          1    LIG   0.0000
   2 C2           0.3150    -0.1864     1.0100 C.2          1    LIG   0.0000
   3 N3           1.0000     1.0000     1.0000 N.am         1    LIG   0.0000
   4 C4           2.4003     1.0000     1.0000 C.ar         1    LIG   0.0000
   5 C5           3.1227     1.5863    -0.0355 C.ar         1    LIG   0.0000
   6 N6           4.4644     1.5730    -0.0110 N.ar         1    LIG   0.0000
   7 C7           5.1466     1.0038     0.9942 C.ar         1    LIG   0.0000
   8 C8           4.4735     0.4035     2.0541 C.ar         1    LIG   0.0000
   9 Br9          5.4390    -0.4380     3.5378 Br           1    LIG   0.0000
  10 C10          3.0828     0.4029     2.0550 C.ar         1    LIG   0.0000
  11 N11         -0.9361    -0.2620     1.6129 N.am         1    LIG   0.0000
  12 C12         -1.9326    -1.0747     0.8993 C.3          1    LIG   0.0000
  13 C13         -2.8373    -1.7352     1.9290 C.3          1    LIG   0.0000
  14 C14         -3.9772    -0.7709     2.1802 C.3          1    LIG   0.0000
  15 C15         -3.5727     0.0364     3.4094 C.3          1    LIG   0.0000
  16 C16         -2.1456    -0.3840     3.7061 C.3          1    LIG   0.0000
  17 C17         -2.2250    -1.8449     3.3095 C.3          1    LIG   0.0000
  18 C18         -1.1446     0.4245     2.8918 C.3          1    LIG   0.0000
  19 H           -3.1722    -2.6206     1.6066 H            1    LIG   0.0000
  20 H           -1.9519    -0.2974     4.6833 H            1    LIG   0.0000
  21 H            0.5000     1.8660     0.9927 H            1    LIG   0.0000
  22 H            2.6413     2.0178    -0.7985 H            1    LIG   0.0000
  23 H            6.1465     1.0109     0.9817 H            1    LIG   0.0000
  24 H            2.5784    -0.0225     2.8064 H            1    LIG   0.0000
  25 H           -1.4706    -1.7757     0.3560 H            1    LIG   0.0000
  26 H           -2.4764    -0.4905     0.2968 H            1    LIG   0.0000
  27 H           -4.8249    -1.2715     2.3555 H            1    LIG   0.0000
  28 H           -4.1031    -0.1675     1.3929 H            1    LIG   0.0000
  29 H           -3.6169     1.0165     3.2159 H            1    LIG   0.0000
  30 H           -4.1697    -0.1780     4.1824 H            1    LIG   0.0000
  31 H           -1.3189    -2.2666     3.2771 H            1    LIG   0.0000
  32 H           -2.8118    -2.3632     3.9317 H            1    LIG   0.0000
  33 H           -1.5041     1.3432     2.7284 H            1    LIG   0.0000
  34 H           -0.2782     0.4888     3.3870 H            1    LIG   0.0000
@<TRIPOS>BOND
   1        1        2 2
   2        2        3 am
   3        3        4 1
   4        4        5 ar
   5        5        6 ar
   6        6        7 ar
   7        7        8 ar
   8        8        9 1
   9        8       10 ar
  10       10        4 ar
  11        2       11 am
  12       11       12 1
  13       12       13 1
  14       13       14 1
  15       14       15 1
  16       15       16 1
  17       16       17 1
  18       17       13 1
  19       16       18 1
  20       18       11 1
  21       13       19 1
  22       16       20 1
  23        3       21 1
  24        5       22 1
  25        7       23 1
  26       10       24 1
  27       12       25 1
  28       12       26 1
  29       14       27 1
  30       14       28 1
  31       15       29 1
  32       15       30 1
  33       17       31 1
  34       17       32 1
  35       18       33 1
  36       18       34 1

@<TRIPOS>MOLECULE

  34   36
SMALL
USER_CHARGES
@<TRIPOS>ATOM
   1 O1           0.7944    -1.1604     0.4986 O.2          1    LIG   0.0000
   2 C2           0.3150    -0.1864     1.0100 C.2          1    LIG   0.0000
   3 N3           1.0000     1.0000     1.0000 N.am         1    LIG   0.0000
   4 C4           2.4003     1.0000     1.0000 C.ar         1    LIG   0.0000
   5 C5           3.1227     1.5863    -0.0355 C.ar         1    LIG   0.0000
   6 N6           4.4644     1.5730    -0.0110 N.ar         1    LIG   0.0000
   7 C7           5.1466     1.0038     0.9942 C.ar         1    LIG   0.0000
   8 C8           4.4735     0.4035     2.0541 C.ar         1    LIG   0.0000
   9 Br9          5.4390    -0.4380     3.5378 Br           1    LIG   0.0000
  10 C10          3.0828     0.4029     2.0550 C.ar         1    LIG   0.0000
  11 N11         -0.9439    -0.2625     1.6167 N.am         1    LIG   0.0000
  12 C12         -1.8769     0.8591     1.4393 C.3          1    LIG   0.0000
  13 C13         -2.5639     1.0979     2.7748 C.3          1    LIG   0.0000
  14 C14         -1.5569     1.3567     3.8733 C.3          1    LIG   0.0000
  15 C15         -1.1589    -0.0086     4.3960 C.3          1    LIG   0.0000
  16 C16         -2.0576    -0.9868     3.6694 C.3          1    LIG   0.0000
  17 C17         -3.2467    -0.0935     3.4049 C.3          1    LIG   0.0000
  18 C18         -1.2904    -1.4371     2.4347 C.3          1    LIG   0.0000
  19 H           -3.2022     1.8644     2.7032 H            1    LIG   0.0000
  20 H           -2.3031    -1.7617     4.2518 H            1    LIG   0.0000
  21 H            0.5000     1.8660     0.9927 H            1    LIG   0.0000
  22 H            2.6413     2.0178    -0.7985 H            1    LIG   0.0000
  23 H            6.1465     1.0109     0.9817 H            1    LIG   0.0000
  24 H            2.5784    -0.0225     2.8064 H            1    LIG   0.0000
  25 H           -2.5563     0.6311     0.7419 H            1    LIG   0.0000
  26 H           -1.3763     1.6790     1.1615 H            1    LIG   0.0000
  27 H           -1.9694     1.9024     4.6028 H            1    LIG   0.0000
  28 H           -0.7589     1.8365     3.5087 H            1    LIG   0.0000
  29 H           -0.1981    -0.1962     4.1917 H            1    LIG   0.0000
  30 H           -1.3065    -0.0631     5.3835 H            1    LIG   0.0000
  31 H           -3.8967    -0.5211     2.7765 H            1    LIG   0.0000
  32 H           -3.7165     0.1557     4.2517 H            1    LIG   0.0000
  33 H           -0.4533    -1.9067     2.7152 H            1    LIG   0.0000
  34 H           -1.8588    -2.0609     1.8982 H            1    LIG   0.0000
@<TRIPOS>BOND
   1        1        2 2
   2        2        3 am
   3        3        4 1
   4        4        5 ar
   5        5        6 ar
   6        6        7 ar
   7        7        8 ar
   8        8        9 1
   9        8       10 ar
  10       10        4 ar
  11        2       11 am
  12       11       12 1
  13       12       13 1
  14       13       14 1
  15       14       15 1
  16       15       16 1
  17       16       17 1
  18       17       13 1
  19       16       18 1
  20       18       11 1
  21       13       19 1
  22       16       20 1
  23        3       21 1
  24        5       22 1
  25        7       23 1
  26       10       24 1
  27       12       25 1
  28       12       26 1
  29       14       27 1
  30       14       28 1
  31       15       29 1
  32       15       30 1
  33       17       31 1
  34       17       32 1
  35       18       33 1
  36       18       34 1

