@<TRIPOS>MOLECULE
*****
 34 36 0 0 0
SMALL
USER_CHARGES

@<TRIPOS>ATOM
      1 O1          0.7944   -1.1516    1.5378 O.2     1  LIG1        0.0000
      2 C2          0.3150   -0.1864    1.0100 C.2     1  LIG1        0.0000
      3 N3          1.0000    1.0000    1.0000 N.am    1  LIG1        0.0000
      4 C4          2.4003    1.0000    1.0000 C.3     1  LIG1        0.0000
      5 C5          3.1227    1.6037    2.0255 C.3     1  LIG1        0.0000
      6 N6          4.4644    1.5890    2.0018 N.pl3   1  LIG1        0.0000
      7 C7          5.1466    1.0032    1.0062 C.3     1  LIG1        0.0000
      8 C8          4.4735    0.3854   -0.0436 C.3     1  LIG1        0.0000
      9 Br9         5.4390   -0.4788   -1.5142 Br      1  LIG1        0.0000
     10 C10         3.0828    0.3849   -0.0446 C.3     1  LIG1        0.0000
     11 N11        -0.9410   -0.2725    0.4061 N.am    1  LIG1        0.0000
     12 C12        -1.9360   -1.0730    1.1342 C.3     1  LIG1        0.0000
     13 C13        -3.3269   -0.5085    0.8762 C.3     1  LIG1        0.0000
     14 C14        -3.8859   -1.3062   -0.2824 C.3     1  LIG1        0.0000
     15 C15        -3.3758   -0.5902   -1.5133 C.3     1  LIG1        0.0000
     16 C16        -2.6736    0.6660   -1.0313 C.3     1  LIG1        0.0000
     17 C17        -3.3369    0.8942    0.3116 C.3     1  LIG1        0.0000
     18 C18        -1.1849    0.4244   -0.8658 C.3     1  LIG1        0.0000
     19 H          -3.9084   -0.5819    1.6864 H       1  LIG1        0.0000
     20 H          -2.8455    1.4323   -1.6504 H       1  LIG1        0.0000
     21 H           0.5000    1.8660    0.9927 H       1  LIG1        0.0000
     22 H           2.6413    2.0487    2.7806 H       1  LIG1        0.0000
     23 H           6.1465    1.0104    1.0186 H       1  LIG1        0.0000
     24 H           2.5784   -0.0532   -0.7887 H       1  LIG1        0.0000
     25 H          -1.7389   -1.0394    2.1140 H       1  LIG1        0.0000
     26 H          -1.8970   -2.0211    0.8186 H       1  LIG1        0.0000
     27 H          -4.8857   -1.3065   -0.2621 H       1  LIG1        0.0000
     28 H          -3.5517   -2.2484   -0.2572 H       1  LIG1        0.0000
     29 H          -2.7338   -1.1743   -2.0100 H       1  LIG1        0.0000
     30 H          -4.1394   -0.3493   -2.1125 H       1  LIG1        0.0000
     31 H          -2.8079    1.5236    0.8809 H       1  LIG1        0.0000
     32 H          -4.2686    1.2420    0.2073 H       1  LIG1        0.0000
     33 H          -0.8519   -0.1374   -1.6231 H       1  LIG1        0.0000
     34 H          -0.7029    1.3006   -0.8638 H       1  LIG1        0.0000
@<TRIPOS>BOND
     1     1     2    2
     2     2     3   am
     3     3     4    1
     4     4     5   ar
     5     5     6   ar
     6     6     7   ar
     7     7     8   ar
     8     8     9    1
     9     8    10   ar
    10    10     4   ar
    11     2    11   am
    12    11    12    1
    13    12    13    1
    14    13    14    1
    15    14    15    1
    16    15    16    1
    17    16    17    1
    18    17    13    1
    19    16    18    1
    20    18    11    1
    21    13    19    1
    22    16    20    1
    23     3    21    1
    24     5    22    1
    25     7    23    1
    26    10    24    1
    27    12    25    1
    28    12    26    1
    29    14    27    1
    30    14    28    1
    31    15    29    1
    32    15    30    1
    33    17    31    1
    34    17    32    1
    35    18    33    1
    36    18    34    1
