@<TRIPOS>MOLECULE
*****
 34 36 0 0 0
SMALL
USER_CHARGES

@<TRIPOS>ATOM
      1 O1          0.7944   -1.1516    1.5378 O.2     1  LIG1        0.0000
      2 C2          0.3150   -0.1864    1.0100 C.2     1  LIG1        0.0000
      3 N3          1.0000    1.0000    1.0000 N.am    1  LIG1        0.0000
      4 C4          2.4003    1.0000    1.0000 C.3     1  LIG1        0.0000
      5 C5          3.1227    1.6037    2.0255 C.3     1  LIG1        0.0000
      6 N6          4.4644    1.5890    2.0018 N.pl3   1  LIG1        0.0000
      7 C7          5.1466    1.0032    1.0062 C.3     1  LIG1        0.0000
      8 C8          4.4735    0.3854   -0.0436 C.3     1  LIG1        0.0000
      9 Br9         5.4390   -0.4788   -1.5142 Br      1  LIG1        0.0000
     10 C10         3.0828    0.3849   -0.0446 C.3     1  LIG1        0.0000
     11 N11        -0.9439   -0.2727    0.4047 N.am    1  LIG1        0.0000
     12 C12        -1.9917   -1.0565    1.0739 C.3     1  LIG1        0.0000
     13 C13        -2.7384   -1.8324    0.0001 C.3     1  LIG1        0.0000
     14 C14        -1.7981   -2.7007   -0.8059 C.3     1  LIG1        0.0000
     15 C15        -1.2640   -1.8124   -1.9109 C.3     1  LIG1        0.0000
     16 C16        -2.0263   -0.5114   -1.7748 C.3     1  LIG1        0.0000
     17 C17        -3.3004   -1.0260   -1.1473 C.3     1  LIG1        0.0000
     18 C18        -1.1791    0.3906   -0.8890 C.3     1  LIG1        0.0000
     19 H          -3.4565   -2.3919    0.4140 H       1  LIG1        0.0000
     20 H          -2.1994   -0.0925   -2.6662 H       1  LIG1        0.0000
     21 H           0.5000    1.8660    0.9927 H       1  LIG1        0.0000
     22 H           2.6413    2.0487    2.7806 H       1  LIG1        0.0000
     23 H           6.1465    1.0104    1.0186 H       1  LIG1        0.0000
     24 H           2.5784   -0.0532   -0.7887 H       1  LIG1        0.0000
     25 H          -2.6213   -0.4453    1.5536 H       1  LIG1        0.0000
     26 H          -1.5788   -1.6901    1.7282 H       1  LIG1        0.0000
     27 H          -2.2896   -3.4809   -1.1928 H       1  LIG1        0.0000
     28 H          -1.0492   -3.0303   -0.2310 H       1  LIG1        0.0000
     29 H          -0.2829   -1.6582   -1.7941 H       1  LIG1        0.0000
     30 H          -1.4322   -2.2258   -2.8058 H       1  LIG1        0.0000
     31 H          -3.8803   -0.2784   -0.8235 H       1  LIG1        0.0000
     32 H          -3.8188   -1.5992   -1.7819 H       1  LIG1        0.0000
     33 H          -0.3027    0.5691   -1.3363 H       1  LIG1        0.0000
     34 H          -1.6584    1.2551   -0.7381 H       1  LIG1        0.0000
@<TRIPOS>BOND
     1     1     2    2
     2     2     3   am
     3     3     4    1
     4     4     5   ar
     5     5     6   ar
     6     6     7   ar
     7     7     8   ar
     8     8     9    1
     9     8    10   ar
    10    10     4   ar
    11     2    11   am
    12    11    12    1
    13    12    13    1
    14    13    14    1
    15    14    15    1
    16    15    16    1
    17    16    17    1
    18    17    13    1
    19    16    18    1
    20    18    11    1
    21    13    19    1
    22    16    20    1
    23     3    21    1
    24     5    22    1
    25     7    23    1
    26    10    24    1
    27    12    25    1
    28    12    26    1
    29    14    27    1
    30    14    28    1
    31    15    29    1
    32    15    30    1
    33    17    31    1
    34    17    32    1
    35    18    33    1
    36    18    34    1
