@<TRIPOS>MOLECULE
*****
 34 36 0 0 0
SMALL
USER_CHARGES

@<TRIPOS>ATOM
      1 O1          0.7944   -1.1604    0.4986 O.2     1  LIG1        0.0000
      2 C2          0.3150   -0.1864    1.0100 C.2     1  LIG1        0.0000
      3 N3          1.0000    1.0000    1.0000 N.am    1  LIG1        0.0000
      4 C4          2.4003    1.0000    1.0000 C.3     1  LIG1        0.0000
      5 C5          3.1227    1.5863   -0.0355 C.3     1  LIG1        0.0000
      6 N6          4.4644    1.5730   -0.0110 N.pl3   1  LIG1        0.0000
      7 C7          5.1466    1.0038    0.9942 C.3     1  LIG1        0.0000
      8 C8          4.4735    0.4035    2.0541 C.3     1  LIG1        0.0000
      9 Br9         5.4390   -0.4380    3.5378 Br      1  LIG1        0.0000
     10 C10         3.0828    0.4029    2.0550 C.3     1  LIG1        0.0000
     11 N11        -0.9361   -0.2620    1.6129 N.am    1  LIG1        0.0000
     12 C12        -1.9326   -1.0747    0.8993 C.3     1  LIG1        0.0000
     13 C13        -2.8373   -1.7352    1.9290 C.3     1  LIG1        0.0000
     14 C14        -3.9772   -0.7709    2.1802 C.3     1  LIG1        0.0000
     15 C15        -3.5727    0.0364    3.4094 C.3     1  LIG1        0.0000
     16 C16        -2.1456   -0.3840    3.7061 C.3     1  LIG1        0.0000
     17 C17        -2.2250   -1.8449    3.3095 C.3     1  LIG1        0.0000
     18 C18        -1.1446    0.4245    2.8918 C.3     1  LIG1        0.0000
     19 H          -3.1722   -2.6206    1.6066 H       1  LIG1        0.0000
     20 H          -1.9519   -0.2974    4.6833 H       1  LIG1        0.0000
     21 H           0.5000    1.8660    0.9927 H       1  LIG1        0.0000
     22 H           2.6413    2.0178   -0.7985 H       1  LIG1        0.0000
     23 H           6.1465    1.0109    0.9817 H       1  LIG1        0.0000
     24 H           2.5784   -0.0225    2.8064 H       1  LIG1        0.0000
     25 H          -1.4706   -1.7757    0.3560 H       1  LIG1        0.0000
     26 H          -2.4764   -0.4905    0.2968 H       1  LIG1        0.0000
     27 H          -4.8249   -1.2715    2.3555 H       1  LIG1        0.0000
     28 H          -4.1031   -0.1675    1.3929 H       1  LIG1        0.0000
     29 H          -3.6169    1.0165    3.2159 H       1  LIG1        0.0000
     30 H          -4.1697   -0.1780    4.1824 H       1  LIG1        0.0000
     31 H          -1.3189   -2.2666    3.2771 H       1  LIG1        0.0000
     32 H          -2.8118   -2.3632    3.9317 H       1  LIG1        0.0000
     33 H          -1.5041    1.3432    2.7284 H       1  LIG1        0.0000
     34 H          -0.2782    0.4888    3.3870 H       1  LIG1        0.0000
@<TRIPOS>BOND
     1     1     2    2
     2     2     3   am
     3     3     4    1
     4     4     5   ar
     5     5     6   ar
     6     6     7   ar
     7     7     8   ar
     8     8     9    1
     9     8    10   ar
    10    10     4   ar
    11     2    11   am
    12    11    12    1
    13    12    13    1
    14    13    14    1
    15    14    15    1
    16    15    16    1
    17    16    17    1
    18    17    13    1
    19    16    18    1
    20    18    11    1
    21    13    19    1
    22    16    20    1
    23     3    21    1
    24     5    22    1
    25     7    23    1
    26    10    24    1
    27    12    25    1
    28    12    26    1
    29    14    27    1
    30    14    28    1
    31    15    29    1
    32    15    30    1
    33    17    31    1
    34    17    32    1
    35    18    33    1
    36    18    34    1
