@<TRIPOS>MOLECULE
*****
 34 36 0 0 0
SMALL
USER_CHARGES

@<TRIPOS>ATOM
      1 O1          0.9150   -1.2256    1.0188 O.2     1  LIG1        0.0000
      2 C2          0.3150   -0.1864    1.0100 C.2     1  LIG1        0.0000
      3 N3          1.0000    1.0000    1.0000 N.am    1  LIG1        0.0000
      4 C4          2.4003    1.0000    1.0000 C.3     1  LIG1        0.0000
      5 C5          3.1227    1.6037    2.0255 C.3     1  LIG1        0.0000
      6 N6          4.4644    1.5890    2.0018 N.pl3   1  LIG1        0.0000
      7 C7          5.1466    1.0032    1.0062 C.3     1  LIG1        0.0000
      8 C8          4.4735    0.3854   -0.0436 C.3     1  LIG1        0.0000
      9 Br9         5.4390   -0.4788   -1.5142 Br      1  LIG1        0.0000
     10 C10         3.0828    0.3849   -0.0446 C.3     1  LIG1        0.0000
     11 N11        -1.0816   -0.1864    1.0100 N.am    1  LIG1        0.0000
     12 C12        -1.7710   -1.4872    1.0210 C.3     1  LIG1        0.0000
     13 C13        -3.1873   -1.3665    1.5602 C.3     1  LIG1        0.0000
     14 C14        -4.0866   -0.9675    0.4098 C.3     1  LIG1        0.0000
     15 C15        -4.1335    0.5501    0.4099 C.3     1  LIG1        0.0000
     16 C16        -3.2146    0.9715    1.5387 C.3     1  LIG1        0.0000
     17 C17        -3.3842   -0.1889    2.4908 C.3     1  LIG1        0.0000
     18 C18        -1.7983    1.1000    0.9957 C.3     1  LIG1        0.0000
     19 H          -3.4914   -2.2205    1.9823 H       1  LIG1        0.0000
     20 H          -3.5215    1.8277    1.9541 H       1  LIG1        0.0000
     21 H           0.5000    1.8660    0.9927 H       1  LIG1        0.0000
     22 H           2.6413    2.0487    2.7806 H       1  LIG1        0.0000
     23 H           6.1465    1.0104    1.0186 H       1  LIG1        0.0000
     24 H           2.5784   -0.0532   -0.7887 H       1  LIG1        0.0000
     25 H          -1.2571   -2.1217    1.5982 H       1  LIG1        0.0000
     26 H          -1.8087   -1.8422    0.0869 H       1  LIG1        0.0000
     27 H          -5.0043   -1.3420    0.5420 H       1  LIG1        0.0000
     28 H          -3.7115   -1.3020   -0.4548 H       1  LIG1        0.0000
     29 H          -3.8064    0.9119   -0.4631 H       1  LIG1        0.0000
     30 H          -5.0653    0.8729    0.5762 H       1  LIG1        0.0000
     31 H          -2.6931   -0.1737    3.2134 H       1  LIG1        0.0000
     32 H          -4.2959   -0.1953    2.9016 H       1  LIG1        0.0000
     33 H          -1.8429    1.4341    0.0542 H       1  LIG1        0.0000
     34 H          -1.2953    1.7558    1.5586 H       1  LIG1        0.0000
@<TRIPOS>BOND
     1     1     2    2
     2     2     3   am
     3     3     4    1
     4     4     5   ar
     5     5     6   ar
     6     6     7   ar
     7     7     8   ar
     8     8     9    1
     9     8    10   ar
    10    10     4   ar
    11     2    11   am
    12    11    12    1
    13    12    13    1
    14    13    14    1
    15    14    15    1
    16    15    16    1
    17    16    17    1
    18    17    13    1
    19    16    18    1
    20    18    11    1
    21    13    19    1
    22    16    20    1
    23     3    21    1
    24     5    22    1
    25     7    23    1
    26    10    24    1
    27    12    25    1
    28    12    26    1
    29    14    27    1
    30    14    28    1
    31    15    29    1
    32    15    30    1
    33    17    31    1
    34    17    32    1
    35    18    33    1
    36    18    34    1
