@<TRIPOS>MOLECULE
*****
 34 36 0 0 0
SMALL
USER_CHARGES

@<TRIPOS>ATOM
      1 O1          0.7944   -1.1604    0.4986 O.2     1  LIG1        0.0000
      2 C2          0.3150   -0.1864    1.0100 C.2     1  LIG1        0.0000
      3 N3          1.0000    1.0000    1.0000 N.am    1  LIG1        0.0000
      4 C4          2.4003    1.0000    1.0000 C.3     1  LIG1        0.0000
      5 C5          3.1227    1.6037    2.0255 C.3     1  LIG1        0.0000
      6 N6          4.4644    1.5890    2.0018 N.pl3   1  LIG1        0.0000
      7 C7          5.1466    1.0032    1.0062 C.3     1  LIG1        0.0000
      8 C8          4.4735    0.3854   -0.0436 C.3     1  LIG1        0.0000
      9 Br9         5.4390   -0.4788   -1.5142 Br      1  LIG1        0.0000
     10 C10         3.0828    0.3849   -0.0446 C.3     1  LIG1        0.0000
     11 N11        -0.9439   -0.2625    1.6167 N.am    1  LIG1        0.0000
     12 C12        -1.1579    0.4562    2.8807 C.3     1  LIG1        0.0000
     13 C13        -1.9838   -0.4453    3.7850 C.3     1  LIG1        0.0000
     14 C14        -1.3099   -1.7834    3.9921 C.3     1  LIG1        0.0000
     15 C15        -1.7531   -2.6508    2.8317 C.3     1  LIG1        0.0000
     16 C16        -2.7719   -1.8180    2.0829 C.3     1  LIG1        0.0000
     17 C17        -3.2850   -0.9616    3.2165 C.3     1  LIG1        0.0000
     18 C18        -2.0045   -1.0759    0.9983 C.3     1  LIG1        0.0000
     19 H          -2.1440    0.0012    4.6653 H       1  LIG1        0.0000
     20 H          -3.4974   -2.3868    1.6953 H       1  LIG1        0.0000
     21 H           0.5000    1.8660    0.9927 H       1  LIG1        0.0000
     22 H           2.6413    2.0487    2.7806 H       1  LIG1        0.0000
     23 H           6.1465    1.0104    1.0186 H       1  LIG1        0.0000
     24 H           2.5784   -0.0532   -0.7887 H       1  LIG1        0.0000
     25 H          -1.6493    1.3100    2.7089 H       1  LIG1        0.0000
     26 H          -0.2785    0.6586    3.3115 H       1  LIG1        0.0000
     27 H          -1.5983   -2.1883    4.8598 H       1  LIG1        0.0000
     28 H          -0.3156   -1.6772    3.9880 H       1  LIG1        0.0000
     29 H          -0.9766   -2.8703    2.2409 H       1  LIG1        0.0000
     30 H          -2.1682   -3.4974    3.1647 H       1  LIG1        0.0000
     31 H          -3.8634   -0.2168    2.8837 H       1  LIG1        0.0000
     32 H          -3.7918   -1.5028    3.8876 H       1  LIG1        0.0000
     33 H          -1.5942   -1.7362    0.3692 H       1  LIG1        0.0000
     34 H          -2.6306   -0.4805    0.4949 H       1  LIG1        0.0000
@<TRIPOS>BOND
     1     1     2    2
     2     2     3   am
     3     3     4    1
     4     4     5   ar
     5     5     6   ar
     6     6     7   ar
     7     7     8   ar
     8     8     9    1
     9     8    10   ar
    10    10     4   ar
    11     2    11   am
    12    11    12    1
    13    12    13    1
    14    13    14    1
    15    14    15    1
    16    15    16    1
    17    16    17    1
    18    17    13    1
    19    16    18    1
    20    18    11    1
    21    13    19    1
    22    16    20    1
    23     3    21    1
    24     5    22    1
    25     7    23    1
    26    10    24    1
    27    12    25    1
    28    12    26    1
    29    14    27    1
    30    14    28    1
    31    15    29    1
    32    15    30    1
    33    17    31    1
    34    17    32    1
    35    18    33    1
    36    18    34    1
