@<TRIPOS>MOLECULE

  33   34
SMALL
USER_CHARGES
@<TRIPOS>ATOM
   1 C1           5.4014     4.0589     6.9021 C.3          1    LIG   0.0000
   2 C2           4.4165     3.4800     5.8997 C.ar         1    LIG   0.0000
   3 C3           4.0430     4.2449     4.7995 C.ar         1    LIG   0.0000
   4 C4           3.1393     3.7179     3.8809 C.ar         1    LIG   0.0000
   5 C5           2.6004     2.4431     4.0326 C.ar         1    LIG   0.0000
   6 C6           2.9977     1.7249     5.1410 C.ar         1    LIG   0.0000
   7 C7           3.8960     2.2024     6.0840 C.ar         1    LIG   0.0000
   8 C8           2.2639     0.4034     5.1014 C.3          1    LIG   0.0000
   9 C9           2.0209     0.2229     3.6252 C.3          1    LIG   0.0000
  10 C10          1.6238     1.6238     3.2119 C.3          1    LIG   0.0000
  11 O11          1.8198     1.8198     1.8198 O.3          1    LIG   0.0000
  12 C12          1.0000     1.0000     1.0000 C.3          1    LIG   0.0000
  13 C13          1.2925     1.2925    -0.4626 C.3          1    LIG   0.0000
  14 C14          2.7551     1.0000    -0.7551 C.3          1    LIG   0.0000
  15 O15          1.0192     2.6589    -0.7359 O.3          1    LIG   0.0000
  16 H            0.6792     1.8219     3.4736 H            1    LIG   0.0000
  17 H            0.7152     0.7152    -1.0400 H            1    LIG   0.0000
  18 H            5.6687     4.9785     6.6139 H            1    LIG   0.0000
  19 H            4.9716     4.1040     7.8039 H            1    LIG   0.0000
  20 H            6.2121     3.4752     6.9481 H            1    LIG   0.0000
  21 H            4.4190     5.1624     4.6701 H            1    LIG   0.0000
  22 H            2.8703     4.2694     3.0913 H            1    LIG   0.0000
  23 H            4.1614     1.6461     6.8715 H            1    LIG   0.0000
  24 H            1.4030     0.4506     5.6081 H            1    LIG   0.0000
  25 H            2.8273    -0.3361     5.4698 H            1    LIG   0.0000
  26 H            2.8496    -0.0765     3.1524 H            1    LIG   0.0000
  27 H            1.2843    -0.4314     3.4535 H            1    LIG   0.0000
  28 H            0.0377     1.1925     1.1925 H            1    LIG   0.0000
  29 H            1.1925     0.0377     1.1925 H            1    LIG   0.0000
  30 H            2.9476     0.0377    -0.5627 H            1    LIG   0.0000
  31 H            2.9476     1.1925    -1.7174 H            1    LIG   0.0000
  32 H            3.3325     1.5774    -0.1778 H            1    LIG   0.0000
  33 H            1.2117     2.8514    -1.6982 H            1    LIG   0.0000
@<TRIPOS>BOND
   1        1        2 1
   2        2        3 ar
   3        3        4 ar
   4        4        5 ar
   5        5        6 ar
   6        6        7 ar
   7        7        2 ar
   8        6        8 1
   9        8        9 1
  10        9       10 1
  11       10        5 1
  12       10       11 1
  13       11       12 1
  14       12       13 1
  15       13       14 1
  16       13       15 1
  17       10       16 1
  18       13       17 1
  19        1       18 1
  20        1       19 1
  21        1       20 1
  22        3       21 1
  23        4       22 1
  24        7       23 1
  25        8       24 1
  26        8       25 1
  27        9       26 1
  28        9       27 1
  29       12       28 1
  30       12       29 1
  31       14       30 1
  32       14       31 1
  33       14       32 1
  34       15       33 1

@<TRIPOS>MOLECULE

  33   34
SMALL
USER_CHARGES
@<TRIPOS>ATOM
   1 C1          -2.3337     4.9039     5.9317 C.3          1    LIG   0.0000
   2 C2          -1.3428     4.0411     5.1676 C.ar         1    LIG   0.0000
   3 C3          -1.6833     3.5816     3.8997 C.ar         1    LIG   0.0000
   4 C4          -0.7785     2.7894     3.1983 C.ar         1    LIG   0.0000
   5 C5           0.4610     2.4462     3.7317 C.ar         1    LIG   0.0000
   6 C6           0.7514     2.9219     4.9933 C.ar         1    LIG   0.0000
   7 C7          -0.1131     3.7158     5.7326 C.ar         1    LIG   0.0000
   8 C8           2.1209     2.3975     5.3621 C.3          1    LIG   0.0000
   9 C9           2.7635     2.2186     4.0109 C.3          1    LIG   0.0000
  10 C10          1.6238     1.6238     3.2119 C.3          1    LIG   0.0000
  11 O11          1.8198     1.8198     1.8198 O.3          1    LIG   0.0000
  12 C12          1.0000     1.0000     1.0000 C.3          1    LIG   0.0000
  13 C13          1.2925     1.2925    -0.4626 C.3          1    LIG   0.0000
  14 C14          2.7551     1.0000    -0.7551 C.3          1    LIG   0.0000
  15 O15          1.0192     2.6589    -0.7359 O.3          1    LIG   0.0000
  16 H            1.5025     0.6543     3.4252 H            1    LIG   0.0000
  17 H            0.7152     0.7152    -1.0400 H            1    LIG   0.0000
  18 H           -3.1566     5.0356     5.3790 H            1    LIG   0.0000
  19 H           -2.5773     4.4516     6.7897 H            1    LIG   0.0000
  20 H           -1.9192     5.7923     6.1293 H            1    LIG   0.0000
  21 H           -2.5676     3.8174     3.4967 H            1    LIG   0.0000
  22 H           -1.0252     2.4582     2.2876 H            1    LIG   0.0000
  23 H            0.1393     4.0441     6.6428 H            1    LIG   0.0000
  24 H            2.0571     1.5280     5.8519 H            1    LIG   0.0000
  25 H            2.6247     3.0577     5.9192 H            1    LIG   0.0000
  26 H            3.0601     3.0937     3.6285 H            1    LIG   0.0000
  27 H            3.5428     1.5936     4.0567 H            1    LIG   0.0000
  28 H            0.0377     1.1925     1.1925 H            1    LIG   0.0000
  29 H            1.1925     0.0377     1.1925 H            1    LIG   0.0000
  30 H            2.9476     0.0377    -0.5627 H            1    LIG   0.0000
  31 H            2.9476     1.1925    -1.7174 H            1    LIG   0.0000
  32 H            3.3325     1.5774    -0.1778 H            1    LIG   0.0000
  33 H            1.2117     2.8514    -1.6982 H            1    LIG   0.0000
@<TRIPOS>BOND
   1        1        2 1
   2        2        3 ar
   3        3        4 ar
   4        4        5 ar
   5        5        6 ar
   6        6        7 ar
   7        7        2 ar
   8        6        8 1
   9        8        9 1
  10        9       10 1
  11       10        5 1
  12       10       11 1
  13       11       12 1
  14       12       13 1
  15       13       14 1
  16       13       15 1
  17       10       16 1
  18       13       17 1
  19        1       18 1
  20        1       19 1
  21        1       20 1
  22        3       21 1
  23        4       22 1
  24        7       23 1
  25        8       24 1
  26        8       25 1
  27        9       26 1
  28        9       27 1
  29       12       28 1
  30       12       29 1
  31       14       30 1
  32       14       31 1
  33       14       32 1
  34       15       33 1

@<TRIPOS>MOLECULE

  33   34
SMALL
USER_CHARGES
@<TRIPOS>ATOM
   1 C1           5.8567     4.1542     6.2564 C.3          1    LIG   0.0000
   2 C2           4.7167     3.5567     5.4514 C.ar         1    LIG   0.0000
   3 C3           3.6538     4.3579     5.0562 C.ar         1    LIG   0.0000
   4 C4           2.6056     3.8115     4.3223 C.ar         1    LIG   0.0000
   5 C5           2.6250     2.4652     3.9771 C.ar         1    LIG   0.0000
   6 C6           3.7014     1.6939     4.3724 C.ar         1    LIG   0.0000
   7 C7           4.7554     2.2089     5.1180 C.ar         1    LIG   0.0000
   8 C8           3.4837     0.3067     3.8071 C.3          1    LIG   0.0000
   9 C9           1.9795     0.2158     3.6344 C.3          1    LIG   0.0000
  10 C10          1.6239     1.6239     3.2112 C.3          1    LIG   0.0000
  11 O11          1.8198     1.8198     1.8198 O.3          1    LIG   0.0000
  12 C12          1.0000     1.0000     1.0000 C.3          1    LIG   0.0000
  13 C13          1.2925     1.2925    -0.4626 C.3          1    LIG   0.0000
  14 C14          2.7551     1.0000    -0.7551 C.3          1    LIG   0.0000
  15 O15          1.0192     2.6589    -0.7359 O.3          1    LIG   0.0000
  16 H            0.6871     1.8518     3.4766 H            1    LIG   0.0000
  17 H            0.7152     0.7152    -1.0400 H            1    LIG   0.0000
  18 H            5.6808     5.1261     6.4128 H            1    LIG   0.0000
  19 H            5.9272     3.6825     7.1354 H            1    LIG   0.0000
  20 H            6.7132     4.0475     5.7513 H            1    LIG   0.0000
  21 H            3.6416     5.3279     5.2991 H            1    LIG   0.0000
  22 H            1.8376     4.3878     4.0428 H            1    LIG   0.0000
  23 H            5.5169     1.6279     5.4050 H            1    LIG   0.0000
  24 H            3.8119    -0.3921     4.4426 H            1    LIG   0.0000
  25 H            3.9497     0.2034     2.9284 H            1    LIG   0.0000
  26 H            1.7347    -0.4484     2.9281 H            1    LIG   0.0000
  27 H            1.5297    -0.0298     4.4931 H            1    LIG   0.0000
  28 H            0.0377     1.1925     1.1925 H            1    LIG   0.0000
  29 H            1.1925     0.0377     1.1925 H            1    LIG   0.0000
  30 H            2.9476     0.0377    -0.5627 H            1    LIG   0.0000
  31 H            2.9476     1.1925    -1.7174 H            1    LIG   0.0000
  32 H            3.3325     1.5774    -0.1778 H            1    LIG   0.0000
  33 H            1.2117     2.8514    -1.6982 H            1    LIG   0.0000
@<TRIPOS>BOND
   1        1        2 1
   2        2        3 ar
   3        3        4 ar
   4        4        5 ar
   5        5        6 ar
   6        6        7 ar
   7        7        2 ar
   8        6        8 1
   9        8        9 1
  10        9       10 1
  11       10        5 1
  12       10       11 1
  13       11       12 1
  14       12       13 1
  15       13       14 1
  16       13       15 1
  17       10       16 1
  18       13       17 1
  19        1       18 1
  20        1       19 1
  21        1       20 1
  22        3       21 1
  23        4       22 1
  24        7       23 1
  25        8       24 1
  26        8       25 1
  27        9       26 1
  28        9       27 1
  29       12       28 1
  30       12       29 1
  31       14       30 1
  32       14       31 1
  33       14       32 1
  34       15       33 1

@<TRIPOS>MOLECULE

  33   34
SMALL
USER_CHARGES
@<TRIPOS>ATOM
   1 C1          -3.4311     3.8929     4.9115 C.3          1    LIG   0.0000
   2 C2          -2.1435     3.2410     4.4408 C.ar         1    LIG   0.0000
   3 C3          -2.1725     1.9630     3.8983 C.ar         1    LIG   0.0000
   4 C4          -0.9929     1.3618     3.4704 C.ar         1    LIG   0.0000
   5 C5           0.2142     2.0422     3.5780 C.ar         1    LIG   0.0000
   6 C6           0.2123     3.3178     4.1098 C.ar         1    LIG   0.0000
   7 C7          -0.9479     3.9381     4.5582 C.ar         1    LIG   0.0000
   8 C8           1.6359     3.8278     4.0427 C.3          1    LIG   0.0000
   9 C9           2.4753     2.5645     4.0350 C.3          1    LIG   0.0000
  10 C10          1.6239     1.6239     3.2112 C.3          1    LIG   0.0000
  11 O11          1.8198     1.8198     1.8198 O.3          1    LIG   0.0000
  12 C12          1.0000     1.0000     1.0000 C.3          1    LIG   0.0000
  13 C13          1.2925     1.2925    -0.4626 C.3          1    LIG   0.0000
  14 C14          2.7551     1.0000    -0.7551 C.3          1    LIG   0.0000
  15 O15          1.0192     2.6589    -0.7359 O.3          1    LIG   0.0000
  16 H            1.7927     0.6718     3.4661 H            1    LIG   0.0000
  17 H            0.7152     0.7152    -1.0400 H            1    LIG   0.0000
  18 H           -4.1964     3.2673     4.7599 H            1    LIG   0.0000
  19 H           -3.3610     4.1036     5.8866 H            1    LIG   0.0000
  20 H           -3.5842     4.7374     4.3982 H            1    LIG   0.0000
  21 H           -3.0412     1.4748     3.8152 H            1    LIG   0.0000
  22 H           -1.0138     0.4392     3.0852 H            1    LIG   0.0000
  23 H           -0.9227     4.8566     4.9528 H            1    LIG   0.0000
  24 H            1.8496     4.3923     4.8401 H            1    LIG   0.0000
  25 H            1.7847     4.3591     3.2087 H            1    LIG   0.0000
  26 H            3.3638     2.7217     3.6040 H            1    LIG   0.0000
  27 H            2.6116     2.2136     4.9615 H            1    LIG   0.0000
  28 H            0.0377     1.1925     1.1925 H            1    LIG   0.0000
  29 H            1.1925     0.0377     1.1925 H            1    LIG   0.0000
  30 H            2.9476     0.0377    -0.5627 H            1    LIG   0.0000
  31 H            2.9476     1.1925    -1.7174 H            1    LIG   0.0000
  32 H            3.3325     1.5774    -0.1778 H            1    LIG   0.0000
  33 H            1.2117     2.8514    -1.6982 H            1    LIG   0.0000
@<TRIPOS>BOND
   1        1        2 1
   2        2        3 ar
   3        3        4 ar
   4        4        5 ar
   5        5        6 ar
   6        6        7 ar
   7        7        2 ar
   8        6        8 1
   9        8        9 1
  10        9       10 1
  11       10        5 1
  12       10       11 1
  13       11       12 1
  14       12       13 1
  15       13       14 1
  16       13       15 1
  17       10       16 1
  18       13       17 1
  19        1       18 1
  20        1       19 1
  21        1       20 1
  22        3       21 1
  23        4       22 1
  24        7       23 1
  25        8       24 1
  26        8       25 1
  27        9       26 1
  28        9       27 1
  29       12       28 1
  30       12       29 1
  31       14       30 1
  32       14       31 1
  33       14       32 1
  34       15       33 1

@<TRIPOS>MOLECULE

  33   34
SMALL
USER_CHARGES
@<TRIPOS>ATOM
   1 C1           1.0852     6.7067     5.9439 C.3          1    LIG   0.0000
   2 C2           1.1569     5.3814     5.2070 C.ar         1    LIG   0.0000
   3 C3           0.0165     4.8561     4.6141 C.ar         1    LIG   0.0000
   4 C4           0.0788     3.6394     3.9422 C.ar         1    LIG   0.0000
   5 C5           1.2839     2.9522     3.8568 C.ar         1    LIG   0.0000
   6 C6           2.4061     3.5041     4.4450 C.ar         1    LIG   0.0000
   7 C7           2.3709     4.7105     5.1344 C.ar         1    LIG   0.0000
   8 C8           3.5661     2.5810     4.1390 C.3          1    LIG   0.0000
   9 C9           2.9083     1.2338     3.9086 C.3          1    LIG   0.0000
  10 C10          1.6239     1.6239     3.2112 C.3          1    LIG   0.0000
  11 O11          1.8198     1.8198     1.8198 O.3          1    LIG   0.0000
  12 C12          1.0000     1.0000     1.0000 C.3          1    LIG   0.0000
  13 C13          1.2925     1.2925    -0.4626 C.3          1    LIG   0.0000
  14 C14          2.7551     1.0000    -0.7551 C.3          1    LIG   0.0000
  15 O15          1.0192     2.6589    -0.7359 O.3          1    LIG   0.0000
  16 H            0.9054     0.9492     3.3802 H            1    LIG   0.0000
  17 H            0.7152     0.7152    -1.0400 H            1    LIG   0.0000
  18 H            0.1501     7.0589     5.9061 H            1    LIG   0.0000
  19 H            1.3525     6.5725     6.8981 H            1    LIG   0.0000
  20 H            1.7058     7.3617     5.5129 H            1    LIG   0.0000
  21 H           -0.8499     5.3525     4.6700 H            1    LIG   0.0000
  22 H           -0.7441     3.2590     3.5203 H            1    LIG   0.0000
  23 H            3.1932     5.0834     5.5644 H            1    LIG   0.0000
  24 H            4.2011     2.5398     4.9104 H            1    LIG   0.0000
  25 H            4.0549     2.8830     3.3206 H            1    LIG   0.0000
  26 H            3.4737     0.6485     3.3275 H            1    LIG   0.0000
  27 H            2.7245     0.7669     4.7736 H            1    LIG   0.0000
  28 H            0.0377     1.1925     1.1925 H            1    LIG   0.0000
  29 H            1.1925     0.0377     1.1925 H            1    LIG   0.0000
  30 H            2.9476     0.0377    -0.5627 H            1    LIG   0.0000
  31 H            2.9476     1.1925    -1.7174 H            1    LIG   0.0000
  32 H            3.3325     1.5774    -0.1778 H            1    LIG   0.0000
  33 H            1.2117     2.8514    -1.6982 H            1    LIG   0.0000
@<TRIPOS>BOND
   1        1        2 1
   2        2        3 ar
   3        3        4 ar
   4        4        5 ar
   5        5        6 ar
   6        6        7 ar
   7        7        2 ar
   8        6        8 1
   9        8        9 1
  10        9       10 1
  11       10        5 1
  12       10       11 1
  13       11       12 1
  14       12       13 1
  15       13       14 1
  16       13       15 1
  17       10       16 1
  18       13       17 1
  19        1       18 1
  20        1       19 1
  21        1       20 1
  22        3       21 1
  23        4       22 1
  24        7       23 1
  25        8       24 1
  26        8       25 1
  27        9       26 1
  28        9       27 1
  29       12       28 1
  30       12       29 1
  31       14       30 1
  32       14       31 1
  33       14       32 1
  34       15       33 1

@<TRIPOS>MOLECULE

  33   34
SMALL
USER_CHARGES
@<TRIPOS>ATOM
   1 C1          -1.3360    -0.2007     7.2631 C.3          1    LIG   0.0000
   2 C2          -0.4246     0.1358     6.0942 C.ar         1    LIG   0.0000
   3 C3          -0.8938    -0.0437     4.7972 C.ar         1    LIG   0.0000
   4 C4          -0.0604     0.2617     3.7247 C.ar         1    LIG   0.0000
   5 C5           1.2313     0.7450     3.9157 C.ar         1    LIG   0.0000
   6 C6           1.6529     0.9023     5.2194 C.ar         1    LIG   0.0000
   7 C7           0.8620     0.6153     6.3223 C.ar         1    LIG   0.0000
   8 C8           3.0788     1.4033     5.1685 C.3          1    LIG   0.0000
   9 C9           3.1144     2.1161     3.8414 C.3          1    LIG   0.0000
  10 C10          2.3370     1.1582     2.9642 C.3          1    LIG   0.0000
  11 O11          1.8198     1.8198     1.8198 O.3          1    LIG   0.0000
  12 C12          1.0000     1.0000     1.0000 C.3          1    LIG   0.0000
  13 C13          1.2925     1.2925    -0.4626 C.3          1    LIG   0.0000
  14 C14          2.7551     1.0000    -0.7551 C.3          1    LIG   0.0000
  15 O15          1.0192     2.6589    -0.7359 O.3          1    LIG   0.0000
  16 H            2.8987     0.3733     2.7028 H            1    LIG   0.0000
  17 H            0.7152     0.7152    -1.0400 H            1    LIG   0.0000
  18 H           -2.2150    -0.5286     6.9168 H            1    LIG   0.0000
  19 H           -0.9116    -0.9126     7.8226 H            1    LIG   0.0000
  20 H           -1.4812     0.6178     7.8190 H            1    LIG   0.0000
  21 H           -1.8189    -0.3882     4.6370 H            1    LIG   0.0000
  22 H           -0.3983     0.1305     2.7927 H            1    LIG   0.0000
  23 H            1.2055     0.7486     7.2519 H            1    LIG   0.0000
  24 H            3.7309     0.6456     5.1915 H            1    LIG   0.0000
  25 H            3.2703     2.0309     5.9231 H            1    LIG   0.0000
  26 H            2.6668     3.0087     3.8939 H            1    LIG   0.0000
  27 H            4.0522     2.2322     3.5140 H            1    LIG   0.0000
  28 H            0.0377     1.1925     1.1925 H            1    LIG   0.0000
  29 H            1.1925     0.0377     1.1925 H            1    LIG   0.0000
  30 H            2.9476     0.0377    -0.5627 H            1    LIG   0.0000
  31 H            2.9476     1.1925    -1.7174 H            1    LIG   0.0000
  32 H            3.3325     1.5774    -0.1778 H            1    LIG   0.0000
  33 H            1.2117     2.8514    -1.6982 H            1    LIG   0.0000
@<TRIPOS>BOND
   1        1        2 1
   2        2        3 ar
   3        3        4 ar
   4        4        5 ar
   5        5        6 ar
   6        6        7 ar
   7        7        2 ar
   8        6        8 1
   9        8        9 1
  10        9       10 1
  11       10        5 1
  12       10       11 1
  13       11       12 1
  14       12       13 1
  15       13       14 1
  16       13       15 1
  17       10       16 1
  18       13       17 1
  19        1       18 1
  20        1       19 1
  21        1       20 1
  22        3       21 1
  23        4       22 1
  24        7       23 1
  25        8       24 1
  26        8       25 1
  27        9       26 1
  28        9       27 1
  29       12       28 1
  30       12       29 1
  31       14       30 1
  32       14       31 1
  33       14       32 1
  34       15       33 1

@<TRIPOS>MOLECULE

  33   34
SMALL
USER_CHARGES
@<TRIPOS>ATOM
   1 C1           1.7899     3.7564     8.1381 C.3          1    LIG   0.0000
   2 C2           1.8690     3.0982     6.7703 C.ar         1    LIG   0.0000
   3 C3           0.7790     3.1908     5.9111 C.ar         1    LIG   0.0000
   4 C4           0.8480     2.5871     4.6585 C.ar         1    LIG   0.0000
   5 C5           1.9811     1.8942     4.2411 C.ar         1    LIG   0.0000
   6 C6           3.0341     1.8261     5.1292 C.ar         1    LIG   0.0000
   7 C7           3.0173     2.4115     6.3867 C.ar         1    LIG   0.0000
   8 C8           4.1209     1.0079     4.4690 C.3          1    LIG   0.0000
   9 C9           3.8476     1.2444     3.0061 C.3          1    LIG   0.0000
  10 C10          2.3370     1.1582     2.9642 C.3          1    LIG   0.0000
  11 O11          1.8198     1.8198     1.8198 O.3          1    LIG   0.0000
  12 C12          1.0000     1.0000     1.0000 C.3          1    LIG   0.0000
  13 C13          1.2925     1.2925    -0.4626 C.3          1    LIG   0.0000
  14 C14          2.7551     1.0000    -0.7551 C.3          1    LIG   0.0000
  15 O15          1.0192     2.6589    -0.7359 O.3          1    LIG   0.0000
  16 H            2.0298     0.2073     2.9995 H            1    LIG   0.0000
  17 H            0.7152     0.7152    -1.0400 H            1    LIG   0.0000
  18 H            0.9003     4.2009     8.2432 H            1    LIG   0.0000
  19 H            1.9017     3.0621     8.8491 H            1    LIG   0.0000
  20 H            2.5157     4.4392     8.2219 H            1    LIG   0.0000
  21 H           -0.0443     3.6852     6.1899 H            1    LIG   0.0000
  22 H            0.0630     2.6530     4.0425 H            1    LIG   0.0000
  23 H            3.8054     2.3424     6.9984 H            1    LIG   0.0000
  24 H            4.0382     0.0389     4.7019 H            1    LIG   0.0000
  25 H            5.0298     1.3362     4.7263 H            1    LIG   0.0000
  26 H            4.1705     2.1449     2.7149 H            1    LIG   0.0000
  27 H            4.2697     0.5389     2.4368 H            1    LIG   0.0000
  28 H            0.0377     1.1925     1.1925 H            1    LIG   0.0000
  29 H            1.1925     0.0377     1.1925 H            1    LIG   0.0000
  30 H            2.9476     0.0377    -0.5627 H            1    LIG   0.0000
  31 H            2.9476     1.1925    -1.7174 H            1    LIG   0.0000
  32 H            3.3325     1.5774    -0.1778 H            1    LIG   0.0000
  33 H            1.2117     2.8514    -1.6982 H            1    LIG   0.0000
@<TRIPOS>BOND
   1        1        2 1
   2        2        3 ar
   3        3        4 ar
   4        4        5 ar
   5        5        6 ar
   6        6        7 ar
   7        7        2 ar
   8        6        8 1
   9        8        9 1
  10        9       10 1
  11       10        5 1
  12       10       11 1
  13       11       12 1
  14       12       13 1
  15       13       14 1
  16       13       15 1
  17       10       16 1
  18       13       17 1
  19        1       18 1
  20        1       19 1
  21        1       20 1
  22        3       21 1
  23        4       22 1
  24        7       23 1
  25        8       24 1
  26        8       25 1
  27        9       26 1
  28        9       27 1
  29       12       28 1
  30       12       29 1
  31       14       30 1
  32       14       31 1
  33       14       32 1
  34       15       33 1

@<TRIPOS>MOLECULE

  33   34
SMALL
USER_CHARGES
@<TRIPOS>ATOM
   1 C1          -1.5062     7.4871     2.5210 C.3          1    LIG   0.0000
   2 C2          -0.8333     6.1252     2.5740 C.ar         1    LIG   0.0000
   3 C3          -0.9554     5.2677     1.4856 C.ar         1    LIG   0.0000
   4 C4          -0.3419     4.0189     1.5322 C.ar         1    LIG   0.0000
   5 C5           0.3938     3.6054     2.6396 C.ar         1    LIG   0.0000
   6 C6           0.4828     4.4884     3.6954 C.ar         1    LIG   0.0000
   7 C7          -0.1070     5.7439     3.6985 C.ar         1    LIG   0.0000
   8 C8           1.2951     3.8100     4.7755 C.3          1    LIG   0.0000
   9 C9           2.1531     2.8638     3.9761 C.3          1    LIG   0.0000
  10 C10          1.1582     2.3370     2.9642 C.3          1    LIG   0.0000
  11 O11          1.8198     1.8198     1.8198 O.3          1    LIG   0.0000
  12 C12          1.0000     1.0000     1.0000 C.3          1    LIG   0.0000
  13 C13          1.2925     1.2925    -0.4626 C.3          1    LIG   0.0000
  14 C14          2.7551     1.0000    -0.7551 C.3          1    LIG   0.0000
  15 O15          1.0192     2.6589    -0.7359 O.3          1    LIG   0.0000
  16 H            0.5580     1.6501     3.3739 H            1    LIG   0.0000
  17 H            0.7152     0.7152    -1.0400 H            1    LIG   0.0000
  18 H           -1.9796     7.5912     1.6464 H            1    LIG   0.0000
  19 H           -2.1664     7.5620     3.2684 H            1    LIG   0.0000
  20 H           -0.8152     8.2041     2.6135 H            1    LIG   0.0000
  21 H           -1.4777     5.5450     0.6792 H            1    LIG   0.0000
  22 H           -0.4319     3.4027     0.7498 H            1    LIG   0.0000
  23 H           -0.0134     6.3558     4.4838 H            1    LIG   0.0000
  24 H            0.7071     3.3148     5.4151 H            1    LIG   0.0000
  25 H            1.8534     4.4698     5.2784 H            1    LIG   0.0000
  26 H            2.9085     3.3438     3.5300 H            1    LIG   0.0000
  27 H            2.5168     2.1285     4.5479 H            1    LIG   0.0000
  28 H            0.0377     1.1925     1.1925 H            1    LIG   0.0000
  29 H            1.1925     0.0377     1.1925 H            1    LIG   0.0000
  30 H            2.9476     0.0377    -0.5627 H            1    LIG   0.0000
  31 H            2.9476     1.1925    -1.7174 H            1    LIG   0.0000
  32 H            3.3325     1.5774    -0.1778 H            1    LIG   0.0000
  33 H            1.2117     2.8514    -1.6982 H            1    LIG   0.0000
@<TRIPOS>BOND
   1        1        2 1
   2        2        3 ar
   3        3        4 ar
   4        4        5 ar
   5        5        6 ar
   6        6        7 ar
   7        7        2 ar
   8        6        8 1
   9        8        9 1
  10        9       10 1
  11       10        5 1
  12       10       11 1
  13       11       12 1
  14       12       13 1
  15       13       14 1
  16       13       15 1
  17       10       16 1
  18       13       17 1
  19        1       18 1
  20        1       19 1
  21        1       20 1
  22        3       21 1
  23        4       22 1
  24        7       23 1
  25        8       24 1
  26        8       25 1
  27        9       26 1
  28        9       27 1
  29       12       28 1
  30       12       29 1
  31       14       30 1
  32       14       31 1
  33       14       32 1
  34       15       33 1

@<TRIPOS>MOLECULE

  33   34
SMALL
USER_CHARGES
@<TRIPOS>ATOM
   1 C1          -2.5874     6.4973     1.4634 C.3          1    LIG   0.0000
   2 C2          -1.6554     5.3581     1.8355 C.ar         1    LIG   0.0000
   3 C3          -2.0947     4.0444     1.7392 C.ar         1    LIG   0.0000
   4 C4          -1.2438     2.9990     2.0841 C.ar         1    LIG   0.0000
   5 C5           0.0491     3.2678     2.5175 C.ar         1    LIG   0.0000
   6 C6           0.4645     4.5838     2.5916 C.ar         1    LIG   0.0000
   7 C7          -0.3677     5.6488     2.2672 C.ar         1    LIG   0.0000
   8 C8           1.9147     4.5669     3.0248 C.3          1    LIG   0.0000
   9 C9           2.0582     3.2511     3.7656 C.3          1    LIG   0.0000
  10 C10          1.1586     2.3367     2.9636 C.3          1    LIG   0.0000
  11 O11          1.8198     1.8198     1.8198 O.3          1    LIG   0.0000
  12 C12          1.0000     1.0000     1.0000 C.3          1    LIG   0.0000
  13 C13          1.2925     1.2925    -0.4626 C.3          1    LIG   0.0000
  14 C14          2.7551     1.0000    -0.7551 C.3          1    LIG   0.0000
  15 O15          1.0192     2.6589    -0.7359 O.3          1    LIG   0.0000
  16 H            0.7988     1.5981     3.5337 H            1    LIG   0.0000
  17 H            0.7152     0.7152    -1.0400 H            1    LIG   0.0000
  18 H           -3.4698     6.1254     1.1752 H            1    LIG   0.0000
  19 H           -2.7194     7.0924     2.2561 H            1    LIG   0.0000
  20 H           -2.1869     7.0243     0.7139 H            1    LIG   0.0000
  21 H           -3.0229     3.8497     1.4221 H            1    LIG   0.0000
  22 H           -1.5627     2.0534     2.0199 H            1    LIG   0.0000
  23 H           -0.0495     6.5939     2.3423 H            1    LIG   0.0000
  24 H            2.1149     5.3387     3.6283 H            1    LIG   0.0000
  25 H            2.5234     4.5971     2.2320 H            1    LIG   0.0000
  26 H            3.0050     2.9297     3.7547 H            1    LIG   0.0000
  27 H            1.7441     3.3310     4.7116 H            1    LIG   0.0000
  28 H            0.0377     1.1925     1.1925 H            1    LIG   0.0000
  29 H            1.1925     0.0377     1.1925 H            1    LIG   0.0000
  30 H            2.9476     0.0377    -0.5627 H            1    LIG   0.0000
  31 H            2.9476     1.1925    -1.7174 H            1    LIG   0.0000
  32 H            3.3325     1.5774    -0.1778 H            1    LIG   0.0000
  33 H            1.2117     2.8514    -1.6982 H            1    LIG   0.0000
@<TRIPOS>BOND
   1        1        2 1
   2        2        3 ar
   3        3        4 ar
   4        4        5 ar
   5        5        6 ar
   6        6        7 ar
   7        7        2 ar
   8        6        8 1
   9        8        9 1
  10        9       10 1
  11       10        5 1
  12       10       11 1
  13       11       12 1
  14       12       13 1
  15       13       14 1
  16       13       15 1
  17       10       16 1
  18       13       17 1
  19        1       18 1
  20        1       19 1
  21        1       20 1
  22        3       21 1
  23        4       22 1
  24        7       23 1
  25        8       24 1
  26        8       25 1
  27        9       26 1
  28        9       27 1
  29       12       28 1
  30       12       29 1
  31       14       30 1
  32       14       31 1
  33       14       32 1
  34       15       33 1

@<TRIPOS>MOLECULE

  33   34
SMALL
USER_CHARGES
@<TRIPOS>ATOM
   1 C1           3.8127     6.3206     6.2293 C.3          1    LIG   0.0000
   2 C2           3.2017     5.4550     5.1394 C.ar         1    LIG   0.0000
   3 C3           4.0422     4.7993     4.2459 C.ar         1    LIG   0.0000
   4 C4           3.4853     4.0075     3.2453 C.ar         1    LIG   0.0000
   5 C5           2.1077     3.8522     3.1162 C.ar         1    LIG   0.0000
   6 C6           1.3156     4.5254     4.0227 C.ar         1    LIG   0.0000
   7 C7           1.8197     5.3241     5.0387 C.ar         1    LIG   0.0000
   8 C8          -0.1229     4.2278     3.6637 C.3          1    LIG   0.0000
   9 C9          -0.0080     2.8826     2.9944 C.3          1    LIG   0.0000
  10 C10          1.2362     3.0701     2.1532 C.3          1    LIG   0.0000
  11 O11          1.8198     1.8198     1.8198 O.3          1    LIG   0.0000
  12 C12          1.0000     1.0000     1.0000 C.3          1    LIG   0.0000
  13 C13          1.2925     1.2925    -0.4626 C.3          1    LIG   0.0000
  14 C14          2.7551     1.0000    -0.7551 C.3          1    LIG   0.0000
  15 O15          1.0192     2.6589    -0.7359 O.3          1    LIG   0.0000
  16 H            1.0380     3.6050     1.3318 H            1    LIG   0.0000
  17 H            0.7152     0.7152    -1.0400 H            1    LIG   0.0000
  18 H            4.8095     6.2994     6.1522 H            1    LIG   0.0000
  19 H            3.4904     7.2618     6.1274 H            1    LIG   0.0000
  20 H            3.5401     5.9701     7.1253 H            1    LIG   0.0000
  21 H            5.0347     4.8954     4.3213 H            1    LIG   0.0000
  22 H            4.0905     3.5379     2.6025 H            1    LIG   0.0000
  23 H            1.2094     5.7910     5.6785 H            1    LIG   0.0000
  24 H           -0.4904     4.9150     3.0371 H            1    LIG   0.0000
  25 H           -0.6984     4.1793     4.4801 H            1    LIG   0.0000
  26 H            0.1109     2.1500     3.6646 H            1    LIG   0.0000
  27 H           -0.8074     2.6878     2.4260 H            1    LIG   0.0000
  28 H            0.0377     1.1925     1.1925 H            1    LIG   0.0000
  29 H            1.1925     0.0377     1.1925 H            1    LIG   0.0000
  30 H            2.9476     0.0377    -0.5627 H            1    LIG   0.0000
  31 H            2.9476     1.1925    -1.7174 H            1    LIG   0.0000
  32 H            3.3325     1.5774    -0.1778 H            1    LIG   0.0000
  33 H            1.2117     2.8514    -1.6982 H            1    LIG   0.0000
@<TRIPOS>BOND
   1        1        2 1
   2        2        3 ar
   3        3        4 ar
   4        4        5 ar
   5        5        6 ar
   6        6        7 ar
   7        7        2 ar
   8        6        8 1
   9        8        9 1
  10        9       10 1
  11       10        5 1
  12       10       11 1
  13       11       12 1
  14       12       13 1
  15       13       14 1
  16       13       15 1
  17       10       16 1
  18       13       17 1
  19        1       18 1
  20        1       19 1
  21        1       20 1
  22        3       21 1
  23        4       22 1
  24        7       23 1
  25        8       24 1
  26        8       25 1
  27        9       26 1
  28        9       27 1
  29       12       28 1
  30       12       29 1
  31       14       30 1
  32       14       31 1
  33       14       32 1
  34       15       33 1

@<TRIPOS>MOLECULE

  33   34
SMALL
USER_CHARGES
@<TRIPOS>ATOM
   1 C1           4.4051     7.8866     1.3927 C.3          1    LIG   0.0000
   2 C2           3.6020     6.6036     1.5319 C.ar         1    LIG   0.0000
   3 C3           3.7069     5.6296     0.5445 C.ar         1    LIG   0.0000
   4 C4           2.9709     4.4544     0.6684 C.ar         1    LIG   0.0000
   5 C5           2.1331     4.2265     1.7568 C.ar         1    LIG   0.0000
   6 C6           2.0590     5.2230     2.7075 C.ar         1    LIG   0.0000
   7 C7           2.7725     6.4102     2.6328 C.ar         1    LIG   0.0000
   8 C8           1.0761     4.7618     3.7599 C.3          1    LIG   0.0000
   9 C9           1.1821     3.2624     3.6536 C.3          1    LIG   0.0000
  10 C10          1.2362     3.0701     2.1532 C.3          1    LIG   0.0000
  11 O11          1.8198     1.8198     1.8198 O.3          1    LIG   0.0000
  12 C12          1.0000     1.0000     1.0000 C.3          1    LIG   0.0000
  13 C13          1.2925     1.2925    -0.4626 C.3          1    LIG   0.0000
  14 C14          2.7551     1.0000    -0.7551 C.3          1    LIG   0.0000
  15 O15          1.0192     2.6589    -0.7359 O.3          1    LIG   0.0000
  16 H            0.3279     3.1632     1.7455 H            1    LIG   0.0000
  17 H            0.7152     0.7152    -1.0400 H            1    LIG   0.0000
  18 H            4.9408     7.8546     0.5489 H            1    LIG   0.0000
  19 H            3.7821     8.6682     1.3626 H            1    LIG   0.0000
  20 H            5.0207     7.9810     2.1751 H            1    LIG   0.0000
  21 H            4.3040     5.7717    -0.2450 H            1    LIG   0.0000
  22 H            3.0459     3.7556    -0.0430 H            1    LIG   0.0000
  23 H            2.6935     7.1053     3.3474 H            1    LIG   0.0000
  24 H            0.1493     5.0759     3.5538 H            1    LIG   0.0000
  25 H            1.3416     5.0810     4.6696 H            1    LIG   0.0000
  26 H            2.0121     2.9225     4.0957 H            1    LIG   0.0000
  27 H            0.3836     2.8105     4.0513 H            1    LIG   0.0000
  28 H            0.0377     1.1925     1.1925 H            1    LIG   0.0000
  29 H            1.1925     0.0377     1.1925 H            1    LIG   0.0000
  30 H            2.9476     0.0377    -0.5627 H            1    LIG   0.0000
  31 H            2.9476     1.1925    -1.7174 H            1    LIG   0.0000
  32 H            3.3325     1.5774    -0.1778 H            1    LIG   0.0000
  33 H            1.2117     2.8514    -1.6982 H            1    LIG   0.0000
@<TRIPOS>BOND
   1        1        2 1
   2        2        3 ar
   3        3        4 ar
   4        4        5 ar
   5        5        6 ar
   6        6        7 ar
   7        7        2 ar
   8        6        8 1
   9        8        9 1
  10        9       10 1
  11       10        5 1
  12       10       11 1
  13       11       12 1
  14       12       13 1
  15       13       14 1
  16       13       15 1
  17       10       16 1
  18       13       17 1
  19        1       18 1
  20        1       19 1
  21        1       20 1
  22        3       21 1
  23        4       22 1
  24        7       23 1
  25        8       24 1
  26        8       25 1
  27        9       26 1
  28        9       27 1
  29       12       28 1
  30       12       29 1
  31       14       30 1
  32       14       31 1
  33       14       32 1
  34       15       33 1

@<TRIPOS>MOLECULE

  33   34
SMALL
USER_CHARGES
@<TRIPOS>ATOM
   1 C1           5.0521     6.4431     4.9193 C.3          1    LIG   0.0000
   2 C2           4.0848     5.5776     4.1320 C.ar         1    LIG   0.0000
   3 C3           4.1333     5.5712     2.7443 C.ar         1    LIG   0.0000
   4 C4           3.2447     4.7822     2.0206 C.ar         1    LIG   0.0000
   5 C5           2.3130     3.9938     2.6855 C.ar         1    LIG   0.0000
   6 C6           2.2953     4.0095     4.0673 C.ar         1    LIG   0.0000
   7 C7           3.1611     4.7980     4.8162 C.ar         1    LIG   0.0000
   8 C8           1.2377     3.0205     4.5081 C.3          1    LIG   0.0000
   9 C9           0.2893     2.9507     3.3264 C.3          1    LIG   0.0000
  10 C10          1.2365     3.0694     2.1530 C.3          1    LIG   0.0000
  11 O11          1.8198     1.8198     1.8198 O.3          1    LIG   0.0000
  12 C12          1.0000     1.0000     1.0000 C.3          1    LIG   0.0000
  13 C13          1.2925     1.2925    -0.4626 C.3          1    LIG   0.0000
  14 C14          2.7551     1.0000    -0.7551 C.3          1    LIG   0.0000
  15 O15          1.0192     2.6589    -0.7359 O.3          1    LIG   0.0000
  16 H            0.7774     3.4728     1.3615 H            1    LIG   0.0000
  17 H            0.7152     0.7152    -1.0400 H            1    LIG   0.0000
  18 H            5.6469     6.9387     4.2864 H            1    LIG   0.0000
  19 H            4.5382     7.0967     5.4749 H            1    LIG   0.0000
  20 H            5.6084     5.8639     5.5152 H            1    LIG   0.0000
  21 H            4.8070     6.1337     2.2650 H            1    LIG   0.0000
  22 H            3.2764     4.7824     1.0211 H            1    LIG   0.0000
  23 H            3.1201     4.8038     5.8153 H            1    LIG   0.0000
  24 H            0.7639     3.3470     5.3259 H            1    LIG   0.0000
  25 H            1.6427     2.1250     4.6927 H            1    LIG   0.0000
  26 H           -0.2044     2.0812     3.3080 H            1    LIG   0.0000
  27 H           -0.3661     3.7059     3.3418 H            1    LIG   0.0000
  28 H            0.0377     1.1925     1.1925 H            1    LIG   0.0000
  29 H            1.1925     0.0377     1.1925 H            1    LIG   0.0000
  30 H            2.9476     0.0377    -0.5627 H            1    LIG   0.0000
  31 H            2.9476     1.1925    -1.7174 H            1    LIG   0.0000
  32 H            3.3325     1.5774    -0.1778 H            1    LIG   0.0000
  33 H            1.2117     2.8514    -1.6982 H            1    LIG   0.0000
@<TRIPOS>BOND
   1        1        2 1
   2        2        3 ar
   3        3        4 ar
   4        4        5 ar
   5        5        6 ar
   6        6        7 ar
   7        7        2 ar
   8        6        8 1
   9        8        9 1
  10        9       10 1
  11       10        5 1
  12       10       11 1
  13       11       12 1
  14       12       13 1
  15       13       14 1
  16       13       15 1
  17       10       16 1
  18       13       17 1
  19        1       18 1
  20        1       19 1
  21        1       20 1
  22        3       21 1
  23        4       22 1
  24        7       23 1
  25        8       24 1
  26        8       25 1
  27        9       26 1
  28        9       27 1
  29       12       28 1
  30       12       29 1
  31       14       30 1
  32       14       31 1
  33       14       32 1
  34       15       33 1

@<TRIPOS>MOLECULE

  33   34
SMALL
USER_CHARGES
@<TRIPOS>ATOM
   1 C1           5.0190     7.3838     1.3330 C.3          1    LIG   0.0000
   2 C2           4.0157     6.2534     1.4761 C.ar         1    LIG   0.0000
   3 C3           3.3020     5.8167     0.3680 C.ar         1    LIG   0.0000
   4 C4           2.3786     4.7840     0.4978 C.ar         1    LIG   0.0000
   5 C5           2.1753     4.1831     1.7345 C.ar         1    LIG   0.0000
   6 C6           2.9085     4.6289     2.8178 C.ar         1    LIG   0.0000
   7 C7           3.8272     5.6675     2.7212 C.ar         1    LIG   0.0000
   8 C8           2.5292     3.7595     3.9974 C.3          1    LIG   0.0000
   9 C9           1.1393     3.2611     3.6504 C.3          1    LIG   0.0000
  10 C10          1.2365     3.0694     2.1530 C.3          1    LIG   0.0000
  11 O11          1.8198     1.8198     1.8198 O.3          1    LIG   0.0000
  12 C12          1.0000     1.0000     1.0000 C.3          1    LIG   0.0000
  13 C13          1.2925     1.2925    -0.4626 C.3          1    LIG   0.0000
  14 C14          2.7551     1.0000    -0.7551 C.3          1    LIG   0.0000
  15 O15          1.0192     2.6589    -0.7359 O.3          1    LIG   0.0000
  16 H            0.3414     3.1738     1.7197 H            1    LIG   0.0000
  17 H            0.7152     0.7152    -1.0400 H            1    LIG   0.0000
  18 H            5.0373     7.6949     0.3829 H            1    LIG   0.0000
  19 H            4.7530     8.1428     1.9273 H            1    LIG   0.0000
  20 H            5.9276     7.0581     1.5947 H            1    LIG   0.0000
  21 H            3.4516     6.2444    -0.5234 H            1    LIG   0.0000
  22 H            1.8608     4.4737    -0.2995 H            1    LIG   0.0000
  23 H            4.3360     5.9827     3.5223 H            1    LIG   0.0000
  24 H            2.5151     4.2932     4.8429 H            1    LIG   0.0000
  25 H            3.1669     2.9955     4.0961 H            1    LIG   0.0000
  26 H            0.9365     2.3988     4.1144 H            1    LIG   0.0000
  27 H            0.4418     3.9381     3.8852 H            1    LIG   0.0000
  28 H            0.0377     1.1925     1.1925 H            1    LIG   0.0000
  29 H            1.1925     0.0377     1.1925 H            1    LIG   0.0000
  30 H            2.9476     0.0377    -0.5627 H            1    LIG   0.0000
  31 H            2.9476     1.1925    -1.7174 H            1    LIG   0.0000
  32 H            3.3325     1.5774    -0.1778 H            1    LIG   0.0000
  33 H            1.2117     2.8514    -1.6982 H            1    LIG   0.0000
@<TRIPOS>BOND
   1        1        2 1
   2        2        3 ar
   3        3        4 ar
   4        4        5 ar
   5        5        6 ar
   6        6        7 ar
   7        7        2 ar
   8        6        8 1
   9        8        9 1
  10        9       10 1
  11       10        5 1
  12       10       11 1
  13       11       12 1
  14       12       13 1
  15       13       14 1
  16       13       15 1
  17       10       16 1
  18       13       17 1
  19        1       18 1
  20        1       19 1
  21        1       20 1
  22        3       21 1
  23        4       22 1
  24        7       23 1
  25        8       24 1
  26        8       25 1
  27        9       26 1
  28        9       27 1
  29       12       28 1
  30       12       29 1
  31       14       30 1
  32       14       31 1
  33       14       32 1
  34       15       33 1

@<TRIPOS>MOLECULE

  33   34
SMALL
USER_CHARGES
@<TRIPOS>ATOM
   1 C1           3.4274    -1.9381     7.0126 C.3          1    LIG   0.0000
   2 C2           3.2723    -1.1368     5.7304 C.ar         1    LIG   0.0000
   3 C3           2.1163    -1.2907     4.9723 C.ar         1    LIG   0.0000
   4 C4           1.9725    -0.5596     3.7963 C.ar         1    LIG   0.0000
   5 C5           2.9552     0.3246     3.3591 C.ar         1    LIG   0.0000
   6 C6           4.0848     0.4398     4.1420 C.ar         1    LIG   0.0000
   7 C7           4.2761    -0.2632     5.3224 C.ar         1    LIG   0.0000
   8 C8           5.0051     1.4222     3.4532 C.3          1    LIG   0.0000
   9 C9           4.0324     2.2775     2.6831 C.3          1    LIG   0.0000
  10 C10          3.0701     1.2362     2.1532 C.3          1    LIG   0.0000
  11 O11          1.8198     1.8198     1.8198 O.3          1    LIG   0.0000
  12 C12          1.0000     1.0000     1.0000 C.3          1    LIG   0.0000
  13 C13          1.2925     1.2925    -0.4626 C.3          1    LIG   0.0000
  14 C14          2.7551     1.0000    -0.7551 C.3          1    LIG   0.0000
  15 O15          1.0192     2.6589    -0.7359 O.3          1    LIG   0.0000
  16 H            3.4604     0.7506     1.3710 H            1    LIG   0.0000
  17 H            0.7152     0.7152    -1.0400 H            1    LIG   0.0000
  18 H            2.6176    -2.5087     7.1491 H            1    LIG   0.0000
  19 H            4.2379    -2.5200     6.9461 H            1    LIG   0.0000
  20 H            3.5287    -1.3127     7.7863 H            1    LIG   0.0000
  21 H            1.3970    -1.9191     5.2686 H            1    LIG   0.0000
  22 H            1.1417    -0.6724     3.2513 H            1    LIG   0.0000
  23 H            5.1091    -0.1461     5.8632 H            1    LIG   0.0000
  24 H            5.6421     0.9547     2.8402 H            1    LIG   0.0000
  25 H            5.5193     1.9651     4.1173 H            1    LIG   0.0000
  26 H            3.5695     2.9326     3.2802 H            1    LIG   0.0000
  27 H            4.4865     2.7677     1.9391 H            1    LIG   0.0000
  28 H            0.0377     1.1925     1.1925 H            1    LIG   0.0000
  29 H            1.1925     0.0377     1.1925 H            1    LIG   0.0000
  30 H            2.9476     0.0377    -0.5627 H            1    LIG   0.0000
  31 H            2.9476     1.1925    -1.7174 H            1    LIG   0.0000
  32 H            3.3325     1.5774    -0.1778 H            1    LIG   0.0000
  33 H            1.2117     2.8514    -1.6982 H            1    LIG   0.0000
@<TRIPOS>BOND
   1        1        2 1
   2        2        3 ar
   3        3        4 ar
   4        4        5 ar
   5        5        6 ar
   6        6        7 ar
   7        7        2 ar
   8        6        8 1
   9        8        9 1
  10        9       10 1
  11       10        5 1
  12       10       11 1
  13       11       12 1
  14       12       13 1
  15       13       14 1
  16       13       15 1
  17       10       16 1
  18       13       17 1
  19        1       18 1
  20        1       19 1
  21        1       20 1
  22        3       21 1
  23        4       22 1
  24        7       23 1
  25        8       24 1
  26        8       25 1
  27        9       26 1
  28        9       27 1
  29       12       28 1
  30       12       29 1
  31       14       30 1
  32       14       31 1
  33       14       32 1
  34       15       33 1

@<TRIPOS>MOLECULE

  33   34
SMALL
USER_CHARGES
@<TRIPOS>ATOM
   1 C1           2.3792    -3.0255     6.0196 C.3          1    LIG   0.0000
   2 C2           2.5388    -1.9554     4.9548 C.ar         1    LIG   0.0000
   3 C3           2.3470    -2.2753     3.6173 C.ar         1    LIG   0.0000
   4 C4           2.4972    -1.2972     2.6392 C.ar         1    LIG   0.0000
   5 C5           2.8315     0.0027     3.0002 C.ar         1    LIG   0.0000
   6 C6           3.0039     0.2964     4.3396 C.ar         1    LIG   0.0000
   7 C7           2.8742    -0.6629     5.3370 C.ar         1    LIG   0.0000
   8 C8           3.2929     1.7792     4.4343 C.3          1    LIG   0.0000
   9 C9           3.8739     2.1244     3.0765 C.3          1    LIG   0.0000
  10 C10          3.0694     1.2365     2.1530 C.3          1    LIG   0.0000
  11 O11          1.8198     1.8198     1.8198 O.3          1    LIG   0.0000
  12 C12          1.0000     1.0000     1.0000 C.3          1    LIG   0.0000
  13 C13          1.2925     1.2925    -0.4626 C.3          1    LIG   0.0000
  14 C14          2.7551     1.0000    -0.7551 C.3          1    LIG   0.0000
  15 O15          1.0192     2.6589    -0.7359 O.3          1    LIG   0.0000
  16 H            3.5902     1.0108     1.3297 H            1    LIG   0.0000
  17 H            0.7152     0.7152    -1.0400 H            1    LIG   0.0000
  18 H            2.1387    -3.8940     5.5861 H            1    LIG   0.0000
  19 H            3.2391    -3.1293     6.5194 H            1    LIG   0.0000
  20 H            1.6546    -2.7582     6.6549 H            1    LIG   0.0000
  21 H            2.1009    -3.2090     3.3569 H            1    LIG   0.0000
  22 H            2.3645    -1.5296     1.6757 H            1    LIG   0.0000
  23 H            3.0177    -0.4300     6.2989 H            1    LIG   0.0000
  24 H            3.9525     1.9674     5.1620 H            1    LIG   0.0000
  25 H            2.4533     2.2953     4.6038 H            1    LIG   0.0000
  26 H            3.7392     3.0912     2.8591 H            1    LIG   0.0000
  27 H            4.8487     1.9056     3.0324 H            1    LIG   0.0000
  28 H            0.0377     1.1925     1.1925 H            1    LIG   0.0000
  29 H            1.1925     0.0377     1.1925 H            1    LIG   0.0000
  30 H            2.9476     0.0377    -0.5627 H            1    LIG   0.0000
  31 H            2.9476     1.1925    -1.7174 H            1    LIG   0.0000
  32 H            3.3325     1.5774    -0.1778 H            1    LIG   0.0000
  33 H            1.2117     2.8514    -1.6982 H            1    LIG   0.0000
@<TRIPOS>BOND
   1        1        2 1
   2        2        3 ar
   3        3        4 ar
   4        4        5 ar
   5        5        6 ar
   6        6        7 ar
   7        7        2 ar
   8        6        8 1
   9        8        9 1
  10        9       10 1
  11       10        5 1
  12       10       11 1
  13       11       12 1
  14       12       13 1
  15       13       14 1
  16       13       15 1
  17       10       16 1
  18       13       17 1
  19        1       18 1
  20        1       19 1
  21        1       20 1
  22        3       21 1
  23        4       22 1
  24        7       23 1
  25        8       24 1
  26        8       25 1
  27        9       26 1
  28        9       27 1
  29       12       28 1
  30       12       29 1
  31       14       30 1
  32       14       31 1
  33       14       32 1
  34       15       33 1

