@<TRIPOS>MOLECULE
*****
 33 34 0 0 0
SMALL
USER_CHARGES

@<TRIPOS>ATOM
      1 C1          5.0190    7.3838    1.3330 C.3     1  LIG1        0.0000
      2 C2          4.0157    6.2534    1.4761 C.ar    1  LIG1        0.0000
      3 C3          3.3020    5.8167    0.3680 C.ar    1  LIG1        0.0000
      4 C4          2.3786    4.7840    0.4978 C.ar    1  LIG1        0.0000
      5 C5          2.1753    4.1831    1.7345 C.ar    1  LIG1        0.0000
      6 C6          2.9085    4.6289    2.8178 C.ar    1  LIG1        0.0000
      7 C7          3.8272    5.6675    2.7212 C.ar    1  LIG1        0.0000
      8 C8          2.5292    3.7595    3.9974 C.3     1  LIG1        0.0000
      9 C9          1.1393    3.2611    3.6504 C.3     1  LIG1        0.0000
     10 C10         1.2365    3.0694    2.1530 C.3     1  LIG1        0.0000
     11 O11         1.8198    1.8198    1.8198 O.3     1  LIG1        0.0000
     12 C12         1.0000    1.0000    1.0000 C.3     1  LIG1        0.0000
     13 C13         1.2925    1.2925   -0.4626 C.3     1  LIG1        0.0000
     14 C14         2.7551    1.0000   -0.7551 C.3     1  LIG1        0.0000
     15 O15         1.0192    2.6589   -0.7359 O.3     1  LIG1        0.0000
     16 H           0.3414    3.1738    1.7197 H       1  LIG1        0.0000
     17 H           0.7152    0.7152   -1.0400 H       1  LIG1        0.0000
     18 H           5.0373    7.6949    0.3829 H       1  LIG1        0.0000
     19 H           4.7530    8.1428    1.9273 H       1  LIG1        0.0000
     20 H           5.9276    7.0581    1.5947 H       1  LIG1        0.0000
     21 H           3.4516    6.2444   -0.5234 H       1  LIG1        0.0000
     22 H           1.8608    4.4737   -0.2995 H       1  LIG1        0.0000
     23 H           4.3360    5.9827    3.5223 H       1  LIG1        0.0000
     24 H           2.5151    4.2932    4.8429 H       1  LIG1        0.0000
     25 H           3.1669    2.9955    4.0961 H       1  LIG1        0.0000
     26 H           0.9365    2.3988    4.1144 H       1  LIG1        0.0000
     27 H           0.4418    3.9381    3.8852 H       1  LIG1        0.0000
     28 H           0.0377    1.1925    1.1925 H       1  LIG1        0.0000
     29 H           1.1925    0.0377    1.1925 H       1  LIG1        0.0000
     30 H           2.9476    0.0377   -0.5627 H       1  LIG1        0.0000
     31 H           2.9476    1.1925   -1.7174 H       1  LIG1        0.0000
     32 H           3.3325    1.5774   -0.1778 H       1  LIG1        0.0000
     33 H           1.2117    2.8514   -1.6982 H       1  LIG1        0.0000
@<TRIPOS>BOND
     1     1     2    1
     2     2     3   ar
     3     3     4   ar
     4     4     5   ar
     5     5     6   ar
     6     6     7   ar
     7     7     2   ar
     8     6     8    1
     9     8     9    1
    10     9    10    1
    11    10     5    1
    12    10    11    1
    13    11    12    1
    14    12    13    1
    15    13    14    1
    16    13    15    1
    17    10    16    1
    18    13    17    1
    19     1    18    1
    20     1    19    1
    21     1    20    1
    22     3    21    1
    23     4    22    1
    24     7    23    1
    25     8    24    1
    26     8    25    1
    27     9    26    1
    28     9    27    1
    29    12    28    1
    30    12    29    1
    31    14    30    1
    32    14    31    1
    33    14    32    1
    34    15    33    1
