@<TRIPOS>MOLECULE
*****
 33 34 0 0 0
SMALL
USER_CHARGES

@<TRIPOS>ATOM
      1 C1          5.4014    4.0589    6.9021 C.3     1  LIG1        0.0000
      2 C2          4.4165    3.4800    5.8997 C.ar    1  LIG1        0.0000
      3 C3          4.0430    4.2449    4.7995 C.ar    1  LIG1        0.0000
      4 C4          3.1393    3.7179    3.8809 C.ar    1  LIG1        0.0000
      5 C5          2.6004    2.4431    4.0326 C.ar    1  LIG1        0.0000
      6 C6          2.9977    1.7249    5.1410 C.ar    1  LIG1        0.0000
      7 C7          3.8960    2.2024    6.0840 C.ar    1  LIG1        0.0000
      8 C8          2.2639    0.4034    5.1014 C.3     1  LIG1        0.0000
      9 C9          2.0209    0.2229    3.6252 C.3     1  LIG1        0.0000
     10 C10         1.6238    1.6238    3.2119 C.3     1  LIG1        0.0000
     11 O11         1.8198    1.8198    1.8198 O.3     1  LIG1        0.0000
     12 C12         1.0000    1.0000    1.0000 C.3     1  LIG1        0.0000
     13 C13         1.2925    1.2925   -0.4626 C.3     1  LIG1        0.0000
     14 C14         2.7551    1.0000   -0.7551 C.3     1  LIG1        0.0000
     15 O15         1.0192    2.6589   -0.7359 O.3     1  LIG1        0.0000
     16 H           0.6792    1.8219    3.4736 H       1  LIG1        0.0000
     17 H           0.7152    0.7152   -1.0400 H       1  LIG1        0.0000
     18 H           5.6687    4.9785    6.6139 H       1  LIG1        0.0000
     19 H           4.9716    4.1040    7.8039 H       1  LIG1        0.0000
     20 H           6.2121    3.4752    6.9481 H       1  LIG1        0.0000
     21 H           4.4190    5.1624    4.6701 H       1  LIG1        0.0000
     22 H           2.8703    4.2694    3.0913 H       1  LIG1        0.0000
     23 H           4.1614    1.6461    6.8715 H       1  LIG1        0.0000
     24 H           1.4030    0.4506    5.6081 H       1  LIG1        0.0000
     25 H           2.8273   -0.3361    5.4698 H       1  LIG1        0.0000
     26 H           2.8496   -0.0765    3.1524 H       1  LIG1        0.0000
     27 H           1.2843   -0.4314    3.4535 H       1  LIG1        0.0000
     28 H           0.0377    1.1925    1.1925 H       1  LIG1        0.0000
     29 H           1.1925    0.0377    1.1925 H       1  LIG1        0.0000
     30 H           2.9476    0.0377   -0.5627 H       1  LIG1        0.0000
     31 H           2.9476    1.1925   -1.7174 H       1  LIG1        0.0000
     32 H           3.3325    1.5774   -0.1778 H       1  LIG1        0.0000
     33 H           1.2117    2.8514   -1.6982 H       1  LIG1        0.0000
@<TRIPOS>BOND
     1     1     2    1
     2     2     3   ar
     3     3     4   ar
     4     4     5   ar
     5     5     6   ar
     6     6     7   ar
     7     7     2   ar
     8     6     8    1
     9     8     9    1
    10     9    10    1
    11    10     5    1
    12    10    11    1
    13    11    12    1
    14    12    13    1
    15    13    14    1
    16    13    15    1
    17    10    16    1
    18    13    17    1
    19     1    18    1
    20     1    19    1
    21     1    20    1
    22     3    21    1
    23     4    22    1
    24     7    23    1
    25     8    24    1
    26     8    25    1
    27     9    26    1
    28     9    27    1
    29    12    28    1
    30    12    29    1
    31    14    30    1
    32    14    31    1
    33    14    32    1
    34    15    33    1
