@<TRIPOS>MOLECULE
*****
 33 34 0 0 0
SMALL
USER_CHARGES

@<TRIPOS>ATOM
      1 C1          5.0521    6.4431    4.9193 C.3     1  LIG1        0.0000
      2 C2          4.0848    5.5776    4.1320 C.ar    1  LIG1        0.0000
      3 C3          4.1333    5.5712    2.7443 C.ar    1  LIG1        0.0000
      4 C4          3.2447    4.7822    2.0206 C.ar    1  LIG1        0.0000
      5 C5          2.3130    3.9938    2.6855 C.ar    1  LIG1        0.0000
      6 C6          2.2953    4.0095    4.0673 C.ar    1  LIG1        0.0000
      7 C7          3.1611    4.7980    4.8162 C.ar    1  LIG1        0.0000
      8 C8          1.2377    3.0205    4.5081 C.3     1  LIG1        0.0000
      9 C9          0.2893    2.9507    3.3264 C.3     1  LIG1        0.0000
     10 C10         1.2365    3.0694    2.1530 C.3     1  LIG1        0.0000
     11 O11         1.8198    1.8198    1.8198 O.3     1  LIG1        0.0000
     12 C12         1.0000    1.0000    1.0000 C.3     1  LIG1        0.0000
     13 C13         1.2925    1.2925   -0.4626 C.3     1  LIG1        0.0000
     14 C14         2.7551    1.0000   -0.7551 C.3     1  LIG1        0.0000
     15 O15         1.0192    2.6589   -0.7359 O.3     1  LIG1        0.0000
     16 H           0.7774    3.4728    1.3615 H       1  LIG1        0.0000
     17 H           0.7152    0.7152   -1.0400 H       1  LIG1        0.0000
     18 H           5.6469    6.9387    4.2864 H       1  LIG1        0.0000
     19 H           4.5382    7.0967    5.4749 H       1  LIG1        0.0000
     20 H           5.6084    5.8639    5.5152 H       1  LIG1        0.0000
     21 H           4.8070    6.1337    2.2650 H       1  LIG1        0.0000
     22 H           3.2764    4.7824    1.0211 H       1  LIG1        0.0000
     23 H           3.1201    4.8038    5.8153 H       1  LIG1        0.0000
     24 H           0.7639    3.3470    5.3259 H       1  LIG1        0.0000
     25 H           1.6427    2.1250    4.6927 H       1  LIG1        0.0000
     26 H          -0.2044    2.0812    3.3080 H       1  LIG1        0.0000
     27 H          -0.3661    3.7059    3.3418 H       1  LIG1        0.0000
     28 H           0.0377    1.1925    1.1925 H       1  LIG1        0.0000
     29 H           1.1925    0.0377    1.1925 H       1  LIG1        0.0000
     30 H           2.9476    0.0377   -0.5627 H       1  LIG1        0.0000
     31 H           2.9476    1.1925   -1.7174 H       1  LIG1        0.0000
     32 H           3.3325    1.5774   -0.1778 H       1  LIG1        0.0000
     33 H           1.2117    2.8514   -1.6982 H       1  LIG1        0.0000
@<TRIPOS>BOND
     1     1     2    1
     2     2     3   ar
     3     3     4   ar
     4     4     5   ar
     5     5     6   ar
     6     6     7   ar
     7     7     2   ar
     8     6     8    1
     9     8     9    1
    10     9    10    1
    11    10     5    1
    12    10    11    1
    13    11    12    1
    14    12    13    1
    15    13    14    1
    16    13    15    1
    17    10    16    1
    18    13    17    1
    19     1    18    1
    20     1    19    1
    21     1    20    1
    22     3    21    1
    23     4    22    1
    24     7    23    1
    25     8    24    1
    26     8    25    1
    27     9    26    1
    28     9    27    1
    29    12    28    1
    30    12    29    1
    31    14    30    1
    32    14    31    1
    33    14    32    1
    34    15    33    1
