@<TRIPOS>MOLECULE
*****
 33 34 0 0 0
SMALL
USER_CHARGES

@<TRIPOS>ATOM
      1 C1          1.0852    6.7067    5.9439 C.3     1  LIG1        0.0000
      2 C2          1.1569    5.3814    5.2070 C.ar    1  LIG1        0.0000
      3 C3          0.0165    4.8561    4.6141 C.ar    1  LIG1        0.0000
      4 C4          0.0788    3.6394    3.9422 C.ar    1  LIG1        0.0000
      5 C5          1.2839    2.9522    3.8568 C.ar    1  LIG1        0.0000
      6 C6          2.4061    3.5041    4.4450 C.ar    1  LIG1        0.0000
      7 C7          2.3709    4.7105    5.1344 C.ar    1  LIG1        0.0000
      8 C8          3.5661    2.5810    4.1390 C.3     1  LIG1        0.0000
      9 C9          2.9083    1.2338    3.9086 C.3     1  LIG1        0.0000
     10 C10         1.6239    1.6239    3.2112 C.3     1  LIG1        0.0000
     11 O11         1.8198    1.8198    1.8198 O.3     1  LIG1        0.0000
     12 C12         1.0000    1.0000    1.0000 C.3     1  LIG1        0.0000
     13 C13         1.2925    1.2925   -0.4626 C.3     1  LIG1        0.0000
     14 C14         2.7551    1.0000   -0.7551 C.3     1  LIG1        0.0000
     15 O15         1.0192    2.6589   -0.7359 O.3     1  LIG1        0.0000
     16 H           0.9054    0.9492    3.3802 H       1  LIG1        0.0000
     17 H           0.7152    0.7152   -1.0400 H       1  LIG1        0.0000
     18 H           0.1501    7.0589    5.9061 H       1  LIG1        0.0000
     19 H           1.3525    6.5725    6.8981 H       1  LIG1        0.0000
     20 H           1.7058    7.3617    5.5129 H       1  LIG1        0.0000
     21 H          -0.8499    5.3525    4.6700 H       1  LIG1        0.0000
     22 H          -0.7441    3.2590    3.5203 H       1  LIG1        0.0000
     23 H           3.1932    5.0834    5.5644 H       1  LIG1        0.0000
     24 H           4.2011    2.5398    4.9104 H       1  LIG1        0.0000
     25 H           4.0549    2.8830    3.3206 H       1  LIG1        0.0000
     26 H           3.4737    0.6485    3.3275 H       1  LIG1        0.0000
     27 H           2.7245    0.7669    4.7736 H       1  LIG1        0.0000
     28 H           0.0377    1.1925    1.1925 H       1  LIG1        0.0000
     29 H           1.1925    0.0377    1.1925 H       1  LIG1        0.0000
     30 H           2.9476    0.0377   -0.5627 H       1  LIG1        0.0000
     31 H           2.9476    1.1925   -1.7174 H       1  LIG1        0.0000
     32 H           3.3325    1.5774   -0.1778 H       1  LIG1        0.0000
     33 H           1.2117    2.8514   -1.6982 H       1  LIG1        0.0000
@<TRIPOS>BOND
     1     1     2    1
     2     2     3   ar
     3     3     4   ar
     4     4     5   ar
     5     5     6   ar
     6     6     7   ar
     7     7     2   ar
     8     6     8    1
     9     8     9    1
    10     9    10    1
    11    10     5    1
    12    10    11    1
    13    11    12    1
    14    12    13    1
    15    13    14    1
    16    13    15    1
    17    10    16    1
    18    13    17    1
    19     1    18    1
    20     1    19    1
    21     1    20    1
    22     3    21    1
    23     4    22    1
    24     7    23    1
    25     8    24    1
    26     8    25    1
    27     9    26    1
    28     9    27    1
    29    12    28    1
    30    12    29    1
    31    14    30    1
    32    14    31    1
    33    14    32    1
    34    15    33    1
