@<TRIPOS>MOLECULE
*****
 33 34 0 0 0
SMALL
USER_CHARGES

@<TRIPOS>ATOM
      1 C1          2.3792   -3.0255    6.0196 C.3     1  LIG1        0.0000
      2 C2          2.5388   -1.9554    4.9548 C.ar    1  LIG1        0.0000
      3 C3          2.3470   -2.2753    3.6173 C.ar    1  LIG1        0.0000
      4 C4          2.4972   -1.2972    2.6392 C.ar    1  LIG1        0.0000
      5 C5          2.8315    0.0027    3.0002 C.ar    1  LIG1        0.0000
      6 C6          3.0039    0.2964    4.3396 C.ar    1  LIG1        0.0000
      7 C7          2.8742   -0.6629    5.3370 C.ar    1  LIG1        0.0000
      8 C8          3.2929    1.7792    4.4343 C.3     1  LIG1        0.0000
      9 C9          3.8739    2.1244    3.0765 C.3     1  LIG1        0.0000
     10 C10         3.0694    1.2365    2.1530 C.3     1  LIG1        0.0000
     11 O11         1.8198    1.8198    1.8198 O.3     1  LIG1        0.0000
     12 C12         1.0000    1.0000    1.0000 C.3     1  LIG1        0.0000
     13 C13         1.2925    1.2925   -0.4626 C.3     1  LIG1        0.0000
     14 C14         2.7551    1.0000   -0.7551 C.3     1  LIG1        0.0000
     15 O15         1.0192    2.6589   -0.7359 O.3     1  LIG1        0.0000
     16 H           3.5902    1.0108    1.3297 H       1  LIG1        0.0000
     17 H           0.7152    0.7152   -1.0400 H       1  LIG1        0.0000
     18 H           2.1387   -3.8940    5.5861 H       1  LIG1        0.0000
     19 H           3.2391   -3.1293    6.5194 H       1  LIG1        0.0000
     20 H           1.6546   -2.7582    6.6549 H       1  LIG1        0.0000
     21 H           2.1009   -3.2090    3.3569 H       1  LIG1        0.0000
     22 H           2.3645   -1.5296    1.6757 H       1  LIG1        0.0000
     23 H           3.0177   -0.4300    6.2989 H       1  LIG1        0.0000
     24 H           3.9525    1.9674    5.1620 H       1  LIG1        0.0000
     25 H           2.4533    2.2953    4.6038 H       1  LIG1        0.0000
     26 H           3.7392    3.0912    2.8591 H       1  LIG1        0.0000
     27 H           4.8487    1.9056    3.0324 H       1  LIG1        0.0000
     28 H           0.0377    1.1925    1.1925 H       1  LIG1        0.0000
     29 H           1.1925    0.0377    1.1925 H       1  LIG1        0.0000
     30 H           2.9476    0.0377   -0.5627 H       1  LIG1        0.0000
     31 H           2.9476    1.1925   -1.7174 H       1  LIG1        0.0000
     32 H           3.3325    1.5774   -0.1778 H       1  LIG1        0.0000
     33 H           1.2117    2.8514   -1.6982 H       1  LIG1        0.0000
@<TRIPOS>BOND
     1     1     2    1
     2     2     3   ar
     3     3     4   ar
     4     4     5   ar
     5     5     6   ar
     6     6     7   ar
     7     7     2   ar
     8     6     8    1
     9     8     9    1
    10     9    10    1
    11    10     5    1
    12    10    11    1
    13    11    12    1
    14    12    13    1
    15    13    14    1
    16    13    15    1
    17    10    16    1
    18    13    17    1
    19     1    18    1
    20     1    19    1
    21     1    20    1
    22     3    21    1
    23     4    22    1
    24     7    23    1
    25     8    24    1
    26     8    25    1
    27     9    26    1
    28     9    27    1
    29    12    28    1
    30    12    29    1
    31    14    30    1
    32    14    31    1
    33    14    32    1
    34    15    33    1
