@<TRIPOS>MOLECULE
*****
 33 34 0 0 0
SMALL
USER_CHARGES

@<TRIPOS>ATOM
      1 C1          1.7899    3.7564    8.1381 C.3     1  LIG1        0.0000
      2 C2          1.8690    3.0982    6.7703 C.ar    1  LIG1        0.0000
      3 C3          0.7790    3.1908    5.9111 C.ar    1  LIG1        0.0000
      4 C4          0.8480    2.5871    4.6585 C.ar    1  LIG1        0.0000
      5 C5          1.9811    1.8942    4.2411 C.ar    1  LIG1        0.0000
      6 C6          3.0341    1.8261    5.1292 C.ar    1  LIG1        0.0000
      7 C7          3.0173    2.4115    6.3867 C.ar    1  LIG1        0.0000
      8 C8          4.1209    1.0079    4.4690 C.3     1  LIG1        0.0000
      9 C9          3.8476    1.2444    3.0061 C.3     1  LIG1        0.0000
     10 C10         2.3370    1.1582    2.9642 C.3     1  LIG1        0.0000
     11 O11         1.8198    1.8198    1.8198 O.3     1  LIG1        0.0000
     12 C12         1.0000    1.0000    1.0000 C.3     1  LIG1        0.0000
     13 C13         1.2925    1.2925   -0.4626 C.3     1  LIG1        0.0000
     14 C14         2.7551    1.0000   -0.7551 C.3     1  LIG1        0.0000
     15 O15         1.0192    2.6589   -0.7359 O.3     1  LIG1        0.0000
     16 H           2.0298    0.2073    2.9995 H       1  LIG1        0.0000
     17 H           0.7152    0.7152   -1.0400 H       1  LIG1        0.0000
     18 H           0.9003    4.2009    8.2432 H       1  LIG1        0.0000
     19 H           1.9017    3.0621    8.8491 H       1  LIG1        0.0000
     20 H           2.5157    4.4392    8.2219 H       1  LIG1        0.0000
     21 H          -0.0443    3.6852    6.1899 H       1  LIG1        0.0000
     22 H           0.0630    2.6530    4.0425 H       1  LIG1        0.0000
     23 H           3.8054    2.3424    6.9984 H       1  LIG1        0.0000
     24 H           4.0382    0.0389    4.7019 H       1  LIG1        0.0000
     25 H           5.0298    1.3362    4.7263 H       1  LIG1        0.0000
     26 H           4.1705    2.1449    2.7149 H       1  LIG1        0.0000
     27 H           4.2697    0.5389    2.4368 H       1  LIG1        0.0000
     28 H           0.0377    1.1925    1.1925 H       1  LIG1        0.0000
     29 H           1.1925    0.0377    1.1925 H       1  LIG1        0.0000
     30 H           2.9476    0.0377   -0.5627 H       1  LIG1        0.0000
     31 H           2.9476    1.1925   -1.7174 H       1  LIG1        0.0000
     32 H           3.3325    1.5774   -0.1778 H       1  LIG1        0.0000
     33 H           1.2117    2.8514   -1.6982 H       1  LIG1        0.0000
@<TRIPOS>BOND
     1     1     2    1
     2     2     3   ar
     3     3     4   ar
     4     4     5   ar
     5     5     6   ar
     6     6     7   ar
     7     7     2   ar
     8     6     8    1
     9     8     9    1
    10     9    10    1
    11    10     5    1
    12    10    11    1
    13    11    12    1
    14    12    13    1
    15    13    14    1
    16    13    15    1
    17    10    16    1
    18    13    17    1
    19     1    18    1
    20     1    19    1
    21     1    20    1
    22     3    21    1
    23     4    22    1
    24     7    23    1
    25     8    24    1
    26     8    25    1
    27     9    26    1
    28     9    27    1
    29    12    28    1
    30    12    29    1
    31    14    30    1
    32    14    31    1
    33    14    32    1
    34    15    33    1
