@<TRIPOS>MOLECULE
*****
 33 34 0 0 0
SMALL
USER_CHARGES

@<TRIPOS>ATOM
      1 C1         -1.5062    7.4871    2.5210 C.3     1  LIG1        0.0000
      2 C2         -0.8333    6.1252    2.5740 C.ar    1  LIG1        0.0000
      3 C3         -0.9554    5.2677    1.4856 C.ar    1  LIG1        0.0000
      4 C4         -0.3419    4.0189    1.5322 C.ar    1  LIG1        0.0000
      5 C5          0.3938    3.6054    2.6396 C.ar    1  LIG1        0.0000
      6 C6          0.4828    4.4884    3.6954 C.ar    1  LIG1        0.0000
      7 C7         -0.1070    5.7439    3.6985 C.ar    1  LIG1        0.0000
      8 C8          1.2951    3.8100    4.7755 C.3     1  LIG1        0.0000
      9 C9          2.1531    2.8638    3.9761 C.3     1  LIG1        0.0000
     10 C10         1.1582    2.3370    2.9642 C.3     1  LIG1        0.0000
     11 O11         1.8198    1.8198    1.8198 O.3     1  LIG1        0.0000
     12 C12         1.0000    1.0000    1.0000 C.3     1  LIG1        0.0000
     13 C13         1.2925    1.2925   -0.4626 C.3     1  LIG1        0.0000
     14 C14         2.7551    1.0000   -0.7551 C.3     1  LIG1        0.0000
     15 O15         1.0192    2.6589   -0.7359 O.3     1  LIG1        0.0000
     16 H           0.5580    1.6501    3.3739 H       1  LIG1        0.0000
     17 H           0.7152    0.7152   -1.0400 H       1  LIG1        0.0000
     18 H          -1.9796    7.5912    1.6464 H       1  LIG1        0.0000
     19 H          -2.1664    7.5620    3.2684 H       1  LIG1        0.0000
     20 H          -0.8152    8.2041    2.6135 H       1  LIG1        0.0000
     21 H          -1.4777    5.5450    0.6792 H       1  LIG1        0.0000
     22 H          -0.4319    3.4027    0.7498 H       1  LIG1        0.0000
     23 H          -0.0134    6.3558    4.4838 H       1  LIG1        0.0000
     24 H           0.7071    3.3148    5.4151 H       1  LIG1        0.0000
     25 H           1.8534    4.4698    5.2784 H       1  LIG1        0.0000
     26 H           2.9085    3.3438    3.5300 H       1  LIG1        0.0000
     27 H           2.5168    2.1285    4.5479 H       1  LIG1        0.0000
     28 H           0.0377    1.1925    1.1925 H       1  LIG1        0.0000
     29 H           1.1925    0.0377    1.1925 H       1  LIG1        0.0000
     30 H           2.9476    0.0377   -0.5627 H       1  LIG1        0.0000
     31 H           2.9476    1.1925   -1.7174 H       1  LIG1        0.0000
     32 H           3.3325    1.5774   -0.1778 H       1  LIG1        0.0000
     33 H           1.2117    2.8514   -1.6982 H       1  LIG1        0.0000
@<TRIPOS>BOND
     1     1     2    1
     2     2     3   ar
     3     3     4   ar
     4     4     5   ar
     5     5     6   ar
     6     6     7   ar
     7     7     2   ar
     8     6     8    1
     9     8     9    1
    10     9    10    1
    11    10     5    1
    12    10    11    1
    13    11    12    1
    14    12    13    1
    15    13    14    1
    16    13    15    1
    17    10    16    1
    18    13    17    1
    19     1    18    1
    20     1    19    1
    21     1    20    1
    22     3    21    1
    23     4    22    1
    24     7    23    1
    25     8    24    1
    26     8    25    1
    27     9    26    1
    28     9    27    1
    29    12    28    1
    30    12    29    1
    31    14    30    1
    32    14    31    1
    33    14    32    1
    34    15    33    1
