@<TRIPOS>MOLECULE
*****
 33 34 0 0 0
SMALL
USER_CHARGES

@<TRIPOS>ATOM
      1 C1         -3.4311    3.8929    4.9115 C.3     1  LIG1        0.0000
      2 C2         -2.1435    3.2410    4.4408 C.ar    1  LIG1        0.0000
      3 C3         -2.1725    1.9630    3.8983 C.ar    1  LIG1        0.0000
      4 C4         -0.9929    1.3618    3.4704 C.ar    1  LIG1        0.0000
      5 C5          0.2142    2.0422    3.5780 C.ar    1  LIG1        0.0000
      6 C6          0.2123    3.3178    4.1098 C.ar    1  LIG1        0.0000
      7 C7         -0.9479    3.9381    4.5582 C.ar    1  LIG1        0.0000
      8 C8          1.6359    3.8278    4.0427 C.3     1  LIG1        0.0000
      9 C9          2.4753    2.5645    4.0350 C.3     1  LIG1        0.0000
     10 C10         1.6239    1.6239    3.2112 C.3     1  LIG1        0.0000
     11 O11         1.8198    1.8198    1.8198 O.3     1  LIG1        0.0000
     12 C12         1.0000    1.0000    1.0000 C.3     1  LIG1        0.0000
     13 C13         1.2925    1.2925   -0.4626 C.3     1  LIG1        0.0000
     14 C14         2.7551    1.0000   -0.7551 C.3     1  LIG1        0.0000
     15 O15         1.0192    2.6589   -0.7359 O.3     1  LIG1        0.0000
     16 H           1.7927    0.6718    3.4661 H       1  LIG1        0.0000
     17 H           0.7152    0.7152   -1.0400 H       1  LIG1        0.0000
     18 H          -4.1964    3.2673    4.7599 H       1  LIG1        0.0000
     19 H          -3.3610    4.1036    5.8866 H       1  LIG1        0.0000
     20 H          -3.5842    4.7374    4.3982 H       1  LIG1        0.0000
     21 H          -3.0412    1.4748    3.8152 H       1  LIG1        0.0000
     22 H          -1.0138    0.4392    3.0852 H       1  LIG1        0.0000
     23 H          -0.9227    4.8566    4.9528 H       1  LIG1        0.0000
     24 H           1.8496    4.3923    4.8401 H       1  LIG1        0.0000
     25 H           1.7847    4.3591    3.2087 H       1  LIG1        0.0000
     26 H           3.3638    2.7217    3.6040 H       1  LIG1        0.0000
     27 H           2.6116    2.2136    4.9615 H       1  LIG1        0.0000
     28 H           0.0377    1.1925    1.1925 H       1  LIG1        0.0000
     29 H           1.1925    0.0377    1.1925 H       1  LIG1        0.0000
     30 H           2.9476    0.0377   -0.5627 H       1  LIG1        0.0000
     31 H           2.9476    1.1925   -1.7174 H       1  LIG1        0.0000
     32 H           3.3325    1.5774   -0.1778 H       1  LIG1        0.0000
     33 H           1.2117    2.8514   -1.6982 H       1  LIG1        0.0000
@<TRIPOS>BOND
     1     1     2    1
     2     2     3   ar
     3     3     4   ar
     4     4     5   ar
     5     5     6   ar
     6     6     7   ar
     7     7     2   ar
     8     6     8    1
     9     8     9    1
    10     9    10    1
    11    10     5    1
    12    10    11    1
    13    11    12    1
    14    12    13    1
    15    13    14    1
    16    13    15    1
    17    10    16    1
    18    13    17    1
    19     1    18    1
    20     1    19    1
    21     1    20    1
    22     3    21    1
    23     4    22    1
    24     7    23    1
    25     8    24    1
    26     8    25    1
    27     9    26    1
    28     9    27    1
    29    12    28    1
    30    12    29    1
    31    14    30    1
    32    14    31    1
    33    14    32    1
    34    15    33    1
