@<TRIPOS>MOLECULE
*****
 33 34 0 0 0
SMALL
USER_CHARGES

@<TRIPOS>ATOM
      1 C1          3.8127    6.3206    6.2293 C.3     1  LIG1        0.0000
      2 C2          3.2017    5.4550    5.1394 C.ar    1  LIG1        0.0000
      3 C3          4.0422    4.7993    4.2459 C.ar    1  LIG1        0.0000
      4 C4          3.4853    4.0075    3.2453 C.ar    1  LIG1        0.0000
      5 C5          2.1077    3.8522    3.1162 C.ar    1  LIG1        0.0000
      6 C6          1.3156    4.5254    4.0227 C.ar    1  LIG1        0.0000
      7 C7          1.8197    5.3241    5.0387 C.ar    1  LIG1        0.0000
      8 C8         -0.1229    4.2278    3.6637 C.3     1  LIG1        0.0000
      9 C9         -0.0080    2.8826    2.9944 C.3     1  LIG1        0.0000
     10 C10         1.2362    3.0701    2.1532 C.3     1  LIG1        0.0000
     11 O11         1.8198    1.8198    1.8198 O.3     1  LIG1        0.0000
     12 C12         1.0000    1.0000    1.0000 C.3     1  LIG1        0.0000
     13 C13         1.2925    1.2925   -0.4626 C.3     1  LIG1        0.0000
     14 C14         2.7551    1.0000   -0.7551 C.3     1  LIG1        0.0000
     15 O15         1.0192    2.6589   -0.7359 O.3     1  LIG1        0.0000
     16 H           1.0380    3.6050    1.3318 H       1  LIG1        0.0000
     17 H           0.7152    0.7152   -1.0400 H       1  LIG1        0.0000
     18 H           4.8095    6.2994    6.1522 H       1  LIG1        0.0000
     19 H           3.4904    7.2618    6.1274 H       1  LIG1        0.0000
     20 H           3.5401    5.9701    7.1253 H       1  LIG1        0.0000
     21 H           5.0347    4.8954    4.3213 H       1  LIG1        0.0000
     22 H           4.0905    3.5379    2.6025 H       1  LIG1        0.0000
     23 H           1.2094    5.7910    5.6785 H       1  LIG1        0.0000
     24 H          -0.4904    4.9150    3.0371 H       1  LIG1        0.0000
     25 H          -0.6984    4.1793    4.4801 H       1  LIG1        0.0000
     26 H           0.1109    2.1500    3.6646 H       1  LIG1        0.0000
     27 H          -0.8074    2.6878    2.4260 H       1  LIG1        0.0000
     28 H           0.0377    1.1925    1.1925 H       1  LIG1        0.0000
     29 H           1.1925    0.0377    1.1925 H       1  LIG1        0.0000
     30 H           2.9476    0.0377   -0.5627 H       1  LIG1        0.0000
     31 H           2.9476    1.1925   -1.7174 H       1  LIG1        0.0000
     32 H           3.3325    1.5774   -0.1778 H       1  LIG1        0.0000
     33 H           1.2117    2.8514   -1.6982 H       1  LIG1        0.0000
@<TRIPOS>BOND
     1     1     2    1
     2     2     3   ar
     3     3     4   ar
     4     4     5   ar
     5     5     6   ar
     6     6     7   ar
     7     7     2   ar
     8     6     8    1
     9     8     9    1
    10     9    10    1
    11    10     5    1
    12    10    11    1
    13    11    12    1
    14    12    13    1
    15    13    14    1
    16    13    15    1
    17    10    16    1
    18    13    17    1
    19     1    18    1
    20     1    19    1
    21     1    20    1
    22     3    21    1
    23     4    22    1
    24     7    23    1
    25     8    24    1
    26     8    25    1
    27     9    26    1
    28     9    27    1
    29    12    28    1
    30    12    29    1
    31    14    30    1
    32    14    31    1
    33    14    32    1
    34    15    33    1
