@<TRIPOS>MOLECULE
*****
 33 34 0 0 0
SMALL
USER_CHARGES

@<TRIPOS>ATOM
      1 C1          4.4051    7.8866    1.3927 C.3     1  LIG1        0.0000
      2 C2          3.6020    6.6036    1.5319 C.ar    1  LIG1        0.0000
      3 C3          3.7069    5.6296    0.5445 C.ar    1  LIG1        0.0000
      4 C4          2.9709    4.4544    0.6684 C.ar    1  LIG1        0.0000
      5 C5          2.1331    4.2265    1.7568 C.ar    1  LIG1        0.0000
      6 C6          2.0590    5.2230    2.7075 C.ar    1  LIG1        0.0000
      7 C7          2.7725    6.4102    2.6328 C.ar    1  LIG1        0.0000
      8 C8          1.0761    4.7618    3.7599 C.3     1  LIG1        0.0000
      9 C9          1.1821    3.2624    3.6536 C.3     1  LIG1        0.0000
     10 C10         1.2362    3.0701    2.1532 C.3     1  LIG1        0.0000
     11 O11         1.8198    1.8198    1.8198 O.3     1  LIG1        0.0000
     12 C12         1.0000    1.0000    1.0000 C.3     1  LIG1        0.0000
     13 C13         1.2925    1.2925   -0.4626 C.3     1  LIG1        0.0000
     14 C14         2.7551    1.0000   -0.7551 C.3     1  LIG1        0.0000
     15 O15         1.0192    2.6589   -0.7359 O.3     1  LIG1        0.0000
     16 H           0.3279    3.1632    1.7455 H       1  LIG1        0.0000
     17 H           0.7152    0.7152   -1.0400 H       1  LIG1        0.0000
     18 H           4.9408    7.8546    0.5489 H       1  LIG1        0.0000
     19 H           3.7821    8.6682    1.3626 H       1  LIG1        0.0000
     20 H           5.0207    7.9810    2.1751 H       1  LIG1        0.0000
     21 H           4.3040    5.7717   -0.2450 H       1  LIG1        0.0000
     22 H           3.0459    3.7556   -0.0430 H       1  LIG1        0.0000
     23 H           2.6935    7.1053    3.3474 H       1  LIG1        0.0000
     24 H           0.1493    5.0759    3.5538 H       1  LIG1        0.0000
     25 H           1.3416    5.0810    4.6696 H       1  LIG1        0.0000
     26 H           2.0121    2.9225    4.0957 H       1  LIG1        0.0000
     27 H           0.3836    2.8105    4.0513 H       1  LIG1        0.0000
     28 H           0.0377    1.1925    1.1925 H       1  LIG1        0.0000
     29 H           1.1925    0.0377    1.1925 H       1  LIG1        0.0000
     30 H           2.9476    0.0377   -0.5627 H       1  LIG1        0.0000
     31 H           2.9476    1.1925   -1.7174 H       1  LIG1        0.0000
     32 H           3.3325    1.5774   -0.1778 H       1  LIG1        0.0000
     33 H           1.2117    2.8514   -1.6982 H       1  LIG1        0.0000
@<TRIPOS>BOND
     1     1     2    1
     2     2     3   ar
     3     3     4   ar
     4     4     5   ar
     5     5     6   ar
     6     6     7   ar
     7     7     2   ar
     8     6     8    1
     9     8     9    1
    10     9    10    1
    11    10     5    1
    12    10    11    1
    13    11    12    1
    14    12    13    1
    15    13    14    1
    16    13    15    1
    17    10    16    1
    18    13    17    1
    19     1    18    1
    20     1    19    1
    21     1    20    1
    22     3    21    1
    23     4    22    1
    24     7    23    1
    25     8    24    1
    26     8    25    1
    27     9    26    1
    28     9    27    1
    29    12    28    1
    30    12    29    1
    31    14    30    1
    32    14    31    1
    33    14    32    1
    34    15    33    1
