@<TRIPOS>MOLECULE
*****
 33 34 0 0 0
SMALL
USER_CHARGES

@<TRIPOS>ATOM
      1 C1         -2.5874    6.4973    1.4634 C.3     1  LIG1        0.0000
      2 C2         -1.6554    5.3581    1.8355 C.ar    1  LIG1        0.0000
      3 C3         -2.0947    4.0444    1.7392 C.ar    1  LIG1        0.0000
      4 C4         -1.2438    2.9990    2.0841 C.ar    1  LIG1        0.0000
      5 C5          0.0491    3.2678    2.5175 C.ar    1  LIG1        0.0000
      6 C6          0.4645    4.5838    2.5916 C.ar    1  LIG1        0.0000
      7 C7         -0.3677    5.6488    2.2672 C.ar    1  LIG1        0.0000
      8 C8          1.9147    4.5669    3.0248 C.3     1  LIG1        0.0000
      9 C9          2.0582    3.2511    3.7656 C.3     1  LIG1        0.0000
     10 C10         1.1586    2.3367    2.9636 C.3     1  LIG1        0.0000
     11 O11         1.8198    1.8198    1.8198 O.3     1  LIG1        0.0000
     12 C12         1.0000    1.0000    1.0000 C.3     1  LIG1        0.0000
     13 C13         1.2925    1.2925   -0.4626 C.3     1  LIG1        0.0000
     14 C14         2.7551    1.0000   -0.7551 C.3     1  LIG1        0.0000
     15 O15         1.0192    2.6589   -0.7359 O.3     1  LIG1        0.0000
     16 H           0.7988    1.5981    3.5337 H       1  LIG1        0.0000
     17 H           0.7152    0.7152   -1.0400 H       1  LIG1        0.0000
     18 H          -3.4698    6.1254    1.1752 H       1  LIG1        0.0000
     19 H          -2.7194    7.0924    2.2561 H       1  LIG1        0.0000
     20 H          -2.1869    7.0243    0.7139 H       1  LIG1        0.0000
     21 H          -3.0229    3.8497    1.4221 H       1  LIG1        0.0000
     22 H          -1.5627    2.0534    2.0199 H       1  LIG1        0.0000
     23 H          -0.0495    6.5939    2.3423 H       1  LIG1        0.0000
     24 H           2.1149    5.3387    3.6283 H       1  LIG1        0.0000
     25 H           2.5234    4.5971    2.2320 H       1  LIG1        0.0000
     26 H           3.0050    2.9297    3.7547 H       1  LIG1        0.0000
     27 H           1.7441    3.3310    4.7116 H       1  LIG1        0.0000
     28 H           0.0377    1.1925    1.1925 H       1  LIG1        0.0000
     29 H           1.1925    0.0377    1.1925 H       1  LIG1        0.0000
     30 H           2.9476    0.0377   -0.5627 H       1  LIG1        0.0000
     31 H           2.9476    1.1925   -1.7174 H       1  LIG1        0.0000
     32 H           3.3325    1.5774   -0.1778 H       1  LIG1        0.0000
     33 H           1.2117    2.8514   -1.6982 H       1  LIG1        0.0000
@<TRIPOS>BOND
     1     1     2    1
     2     2     3   ar
     3     3     4   ar
     4     4     5   ar
     5     5     6   ar
     6     6     7   ar
     7     7     2   ar
     8     6     8    1
     9     8     9    1
    10     9    10    1
    11    10     5    1
    12    10    11    1
    13    11    12    1
    14    12    13    1
    15    13    14    1
    16    13    15    1
    17    10    16    1
    18    13    17    1
    19     1    18    1
    20     1    19    1
    21     1    20    1
    22     3    21    1
    23     4    22    1
    24     7    23    1
    25     8    24    1
    26     8    25    1
    27     9    26    1
    28     9    27    1
    29    12    28    1
    30    12    29    1
    31    14    30    1
    32    14    31    1
    33    14    32    1
    34    15    33    1
