@<TRIPOS>MOLECULE
*****
 33 34 0 0 0
SMALL
USER_CHARGES

@<TRIPOS>ATOM
      1 C1         -2.3337    4.9039    5.9317 C.3     1  LIG1        0.0000
      2 C2         -1.3428    4.0411    5.1676 C.ar    1  LIG1        0.0000
      3 C3         -1.6833    3.5816    3.8997 C.ar    1  LIG1        0.0000
      4 C4         -0.7785    2.7894    3.1983 C.ar    1  LIG1        0.0000
      5 C5          0.4610    2.4462    3.7317 C.ar    1  LIG1        0.0000
      6 C6          0.7514    2.9219    4.9933 C.ar    1  LIG1        0.0000
      7 C7         -0.1131    3.7158    5.7326 C.ar    1  LIG1        0.0000
      8 C8          2.1209    2.3975    5.3621 C.3     1  LIG1        0.0000
      9 C9          2.7635    2.2186    4.0109 C.3     1  LIG1        0.0000
     10 C10         1.6238    1.6238    3.2119 C.3     1  LIG1        0.0000
     11 O11         1.8198    1.8198    1.8198 O.3     1  LIG1        0.0000
     12 C12         1.0000    1.0000    1.0000 C.3     1  LIG1        0.0000
     13 C13         1.2925    1.2925   -0.4626 C.3     1  LIG1        0.0000
     14 C14         2.7551    1.0000   -0.7551 C.3     1  LIG1        0.0000
     15 O15         1.0192    2.6589   -0.7359 O.3     1  LIG1        0.0000
     16 H           1.5025    0.6543    3.4252 H       1  LIG1        0.0000
     17 H           0.7152    0.7152   -1.0400 H       1  LIG1        0.0000
     18 H          -3.1566    5.0356    5.3790 H       1  LIG1        0.0000
     19 H          -2.5773    4.4516    6.7897 H       1  LIG1        0.0000
     20 H          -1.9192    5.7923    6.1293 H       1  LIG1        0.0000
     21 H          -2.5676    3.8174    3.4967 H       1  LIG1        0.0000
     22 H          -1.0252    2.4582    2.2876 H       1  LIG1        0.0000
     23 H           0.1393    4.0441    6.6428 H       1  LIG1        0.0000
     24 H           2.0571    1.5280    5.8519 H       1  LIG1        0.0000
     25 H           2.6247    3.0577    5.9192 H       1  LIG1        0.0000
     26 H           3.0601    3.0937    3.6285 H       1  LIG1        0.0000
     27 H           3.5428    1.5936    4.0567 H       1  LIG1        0.0000
     28 H           0.0377    1.1925    1.1925 H       1  LIG1        0.0000
     29 H           1.1925    0.0377    1.1925 H       1  LIG1        0.0000
     30 H           2.9476    0.0377   -0.5627 H       1  LIG1        0.0000
     31 H           2.9476    1.1925   -1.7174 H       1  LIG1        0.0000
     32 H           3.3325    1.5774   -0.1778 H       1  LIG1        0.0000
     33 H           1.2117    2.8514   -1.6982 H       1  LIG1        0.0000
@<TRIPOS>BOND
     1     1     2    1
     2     2     3   ar
     3     3     4   ar
     4     4     5   ar
     5     5     6   ar
     6     6     7   ar
     7     7     2   ar
     8     6     8    1
     9     8     9    1
    10     9    10    1
    11    10     5    1
    12    10    11    1
    13    11    12    1
    14    12    13    1
    15    13    14    1
    16    13    15    1
    17    10    16    1
    18    13    17    1
    19     1    18    1
    20     1    19    1
    21     1    20    1
    22     3    21    1
    23     4    22    1
    24     7    23    1
    25     8    24    1
    26     8    25    1
    27     9    26    1
    28     9    27    1
    29    12    28    1
    30    12    29    1
    31    14    30    1
    32    14    31    1
    33    14    32    1
    34    15    33    1
