@<TRIPOS>MOLECULE

  35   37
SMALL
USER_CHARGES
@<TRIPOS>ATOM
   1 Cl1          1.1472     3.8676     0.0135 Cl           1    LIG   0.0000
   2 C2           1.1727     2.0896     0.0040 C.ar         1    LIG   0.0000
   3 C3           2.3974     1.4316    -0.0006 C.ar         1    LIG   0.0000
   4 C4           2.4269     0.0453    -0.0082 C.ar         1    LIG   0.0000
   5 C5           1.2224    -0.6566    -0.0227 C.ar         1    LIG   0.0000
   6 C6          -0.0057    -0.0103    -0.0118 C.ar         1    LIG   0.0000
   7 C7          -0.0201     1.3781     0.0063 C.ar         1    LIG   0.0000
   8 Cl8         -1.5721     2.2488     0.0260 Cl           1    LIG   0.0000
   9 C9           1.2241    -2.1752    -0.0720 C.3          1    LIG   0.0000
  10 C10          2.5582    -2.7475     0.3867 C.3          1    LIG   0.0000
  11 N11          2.5295    -4.1987     0.1515 N.3          1    LIG   0.0000
  12 C12          1.5816    -4.7859     1.1113 C.3          1    LIG   0.0000
  13 C13          1.5179    -6.2980     0.9600 C.3          1    LIG   0.0000
  14 C14          1.1824    -6.6105    -0.4898 C.3          1    LIG   0.0000
  15 C15          2.1728    -5.8950    -1.3963 C.3          1    LIG   0.0000
  16 O16          2.1939    -4.4950    -1.1467 O.3          1    LIG   0.0000
  17 C17          3.6481    -2.1027    -0.4532 C.3          1    LIG   0.0000
  18 C18          3.7727    -0.6616     0.0112 C.3          1    LIG   0.0000
  19 H            2.7054    -2.5543     1.3567 H            1    LIG   0.0000
  20 H            3.2502     1.9539     0.0015 H            1    LIG   0.0000
  21 H           -0.8590    -0.5316    -0.0169 H            1    LIG   0.0000
  22 H            1.0501    -2.4698    -1.0116 H            1    LIG   0.0000
  23 H            0.5001    -2.5204     0.5252 H            1    LIG   0.0000
  24 H            0.6723    -4.4025     0.9490 H            1    LIG   0.0000
  25 H            1.8765    -4.5625     2.0404 H            1    LIG   0.0000
  26 H            0.8096    -6.6697     1.5601 H            1    LIG   0.0000
  27 H            2.4017    -6.7005     1.1982 H            1    LIG   0.0000
  28 H            1.2417    -7.5970    -0.6419 H            1    LIG   0.0000
  29 H            0.2550    -6.2969    -0.6938 H            1    LIG   0.0000
  30 H            3.0870    -6.2671    -1.2358 H            1    LIG   0.0000
  31 H            1.9119    -6.0509    -2.3490 H            1    LIG   0.0000
  32 H            3.3980    -2.1312    -1.4210 H            1    LIG   0.0000
  33 H            4.5148    -2.5830    -0.3186 H            1    LIG   0.0000
  34 H            4.1329    -0.6503     0.9441 H            1    LIG   0.0000
  35 H            4.4033    -0.1775    -0.5954 H            1    LIG   0.0000
@<TRIPOS>BOND
   1        1        2 1
   2        2        3 ar
   3        3        4 ar
   4        4        5 ar
   5        5        6 ar
   6        6        7 ar
   7        7        2 ar
   8        7        8 1
   9        5        9 1
  10        9       10 1
  11       10       11 1
  12       11       12 1
  13       12       13 1
  14       13       14 1
  15       14       15 1
  16       15       16 1
  17       16       11 1
  18       10       17 1
  19       17       18 1
  20       18        4 1
  21       10       19 1
  22        3       20 1
  23        6       21 1
  24        9       22 1
  25        9       23 1
  26       12       24 1
  27       12       25 1
  28       13       26 1
  29       13       27 1
  30       14       28 1
  31       14       29 1
  32       15       30 1
  33       15       31 1
  34       17       32 1
  35       17       33 1
  36       18       34 1
  37       18       35 1

@<TRIPOS>MOLECULE

  35   37
SMALL
USER_CHARGES
@<TRIPOS>ATOM
   1 Cl1          1.1472     3.8676     0.0135 Cl           1    LIG   0.0000
   2 C2           1.1727     2.0896     0.0040 C.ar         1    LIG   0.0000
   3 C3           2.3974     1.4316    -0.0006 C.ar         1    LIG   0.0000
   4 C4           2.4269     0.0453    -0.0082 C.ar         1    LIG   0.0000
   5 C5           1.2224    -0.6566    -0.0227 C.ar         1    LIG   0.0000
   6 C6          -0.0057    -0.0103    -0.0118 C.ar         1    LIG   0.0000
   7 C7          -0.0201     1.3781     0.0063 C.ar         1    LIG   0.0000
   8 Cl8         -1.5721     2.2488     0.0260 Cl           1    LIG   0.0000
   9 C9           1.2241    -2.1752    -0.0720 C.3          1    LIG   0.0000
  10 C10          2.5582    -2.7475     0.3867 C.3          1    LIG   0.0000
  11 N11          2.5295    -4.1987     0.1515 N.3          1    LIG   0.0000
  12 C12          2.5711    -4.4143    -1.3033 C.3          1    LIG   0.0000
  13 C13          2.5081    -5.8968    -1.6373 C.3          1    LIG   0.0000
  14 C14          3.6338    -6.5942    -0.8901 C.3          1    LIG   0.0000
  15 C15          3.5438    -6.2435     0.5876 C.3          1    LIG   0.0000
  16 O16          3.5622    -4.8365     0.7938 O.3          1    LIG   0.0000
  17 C17          3.6481    -2.1027    -0.4532 C.3          1    LIG   0.0000
  18 C18          3.7727    -0.6616     0.0112 C.3          1    LIG   0.0000
  19 H            2.7054    -2.5543     1.3567 H            1    LIG   0.0000
  20 H            3.2502     1.9539     0.0015 H            1    LIG   0.0000
  21 H           -0.8590    -0.5316    -0.0169 H            1    LIG   0.0000
  22 H            1.0501    -2.4698    -1.0116 H            1    LIG   0.0000
  23 H            0.5001    -2.5204     0.5252 H            1    LIG   0.0000
  24 H            3.4215    -4.0333    -1.6660 H            1    LIG   0.0000
  25 H            1.7917    -3.9508    -1.7248 H            1    LIG   0.0000
  26 H            2.6219    -6.0280    -2.6221 H            1    LIG   0.0000
  27 H            1.6267    -6.2722    -1.3507 H            1    LIG   0.0000
  28 H            3.5490    -7.5839    -1.0051 H            1    LIG   0.0000
  29 H            4.5148    -6.2907    -1.2531 H            1    LIG   0.0000
  30 H            2.6922    -6.6147     0.9579 H            1    LIG   0.0000
  31 H            4.3212    -6.6519     1.0659 H            1    LIG   0.0000
  32 H            3.3980    -2.1312    -1.4210 H            1    LIG   0.0000
  33 H            4.5148    -2.5830    -0.3186 H            1    LIG   0.0000
  34 H            4.1329    -0.6503     0.9441 H            1    LIG   0.0000
  35 H            4.4033    -0.1775    -0.5954 H            1    LIG   0.0000
@<TRIPOS>BOND
   1        1        2 1
   2        2        3 ar
   3        3        4 ar
   4        4        5 ar
   5        5        6 ar
   6        6        7 ar
   7        7        2 ar
   8        7        8 1
   9        5        9 1
  10        9       10 1
  11       10       11 1
  12       11       12 1
  13       12       13 1
  14       13       14 1
  15       14       15 1
  16       15       16 1
  17       16       11 1
  18       10       17 1
  19       17       18 1
  20       18        4 1
  21       10       19 1
  22        3       20 1
  23        6       21 1
  24        9       22 1
  25        9       23 1
  26       12       24 1
  27       12       25 1
  28       13       26 1
  29       13       27 1
  30       14       28 1
  31       14       29 1
  32       15       30 1
  33       15       31 1
  34       17       32 1
  35       17       33 1
  36       18       34 1
  37       18       35 1

@<TRIPOS>MOLECULE

  35   37
SMALL
USER_CHARGES
@<TRIPOS>ATOM
   1 Cl1          1.1472     3.8676     0.0135 Cl           1    LIG   0.0000
   2 C2           1.1727     2.0896     0.0040 C.ar         1    LIG   0.0000
   3 C3           2.3974     1.4316    -0.0006 C.ar         1    LIG   0.0000
   4 C4           2.4269     0.0453    -0.0082 C.ar         1    LIG   0.0000
   5 C5           1.2224    -0.6566    -0.0227 C.ar         1    LIG   0.0000
   6 C6          -0.0057    -0.0103    -0.0118 C.ar         1    LIG   0.0000
   7 C7          -0.0201     1.3781     0.0063 C.ar         1    LIG   0.0000
   8 Cl8         -1.5721     2.2488     0.0260 Cl           1    LIG   0.0000
   9 C9           1.2241    -2.1752    -0.0720 C.3          1    LIG   0.0000
  10 C10          2.5582    -2.7475     0.3867 C.3          1    LIG   0.0000
  11 N11          2.5295    -4.1987     0.1515 N.3          1    LIG   0.0000
  12 C12          3.8204    -4.7468     0.5962 C.3          1    LIG   0.0000
  13 C13          3.8892    -6.2467     0.3535 C.3          1    LIG   0.0000
  14 C14          2.6921    -6.8878     1.0375 C.3          1    LIG   0.0000
  15 C15          1.4204    -6.1981     0.5667 C.3          1    LIG   0.0000
  16 O16          1.4715    -4.7949     0.7926 O.3          1    LIG   0.0000
  17 C17          3.6481    -2.1027    -0.4532 C.3          1    LIG   0.0000
  18 C18          3.7727    -0.6616     0.0112 C.3          1    LIG   0.0000
  19 H            2.7054    -2.5543     1.3567 H            1    LIG   0.0000
  20 H            3.2502     1.9539     0.0015 H            1    LIG   0.0000
  21 H           -0.8590    -0.5316    -0.0169 H            1    LIG   0.0000
  22 H            1.0501    -2.4698    -1.0116 H            1    LIG   0.0000
  23 H            0.5001    -2.5204     0.5252 H            1    LIG   0.0000
  24 H            3.9320    -4.5683     1.5738 H            1    LIG   0.0000
  25 H            4.5574    -4.2995     0.0895 H            1    LIG   0.0000
  26 H            4.7364    -6.6142     0.7372 H            1    LIG   0.0000
  27 H            3.8594    -6.4334    -0.6284 H            1    LIG   0.0000
  28 H            2.6528    -7.8590     0.8024 H            1    LIG   0.0000
  29 H            2.7798    -6.7880     2.0286 H            1    LIG   0.0000
  30 H            1.3039    -6.3652    -0.4123 H            1    LIG   0.0000
  31 H            0.6413    -6.5788     1.0648 H            1    LIG   0.0000
  32 H            3.3980    -2.1312    -1.4210 H            1    LIG   0.0000
  33 H            4.5148    -2.5830    -0.3186 H            1    LIG   0.0000
  34 H            4.1329    -0.6503     0.9441 H            1    LIG   0.0000
  35 H            4.4033    -0.1775    -0.5954 H            1    LIG   0.0000
@<TRIPOS>BOND
   1        1        2 1
   2        2        3 ar
   3        3        4 ar
   4        4        5 ar
   5        5        6 ar
   6        6        7 ar
   7        7        2 ar
   8        7        8 1
   9        5        9 1
  10        9       10 1
  11       10       11 1
  12       11       12 1
  13       12       13 1
  14       13       14 1
  15       14       15 1
  16       15       16 1
  17       16       11 1
  18       10       17 1
  19       17       18 1
  20       18        4 1
  21       10       19 1
  22        3       20 1
  23        6       21 1
  24        9       22 1
  25        9       23 1
  26       12       24 1
  27       12       25 1
  28       13       26 1
  29       13       27 1
  30       14       28 1
  31       14       29 1
  32       15       30 1
  33       15       31 1
  34       17       32 1
  35       17       33 1
  36       18       34 1
  37       18       35 1

@<TRIPOS>MOLECULE

  35   37
SMALL
USER_CHARGES
@<TRIPOS>ATOM
   1 Cl1          1.1477     3.8663     0.0117 Cl           1    LIG   0.0000
   2 C2           1.1749     2.0868     0.0032 C.ar         1    LIG   0.0000
   3 C3           2.3924     1.4132    -0.0106 C.ar         1    LIG   0.0000
   4 C4           2.4186     0.0206    -0.0193 C.ar         1    LIG   0.0000
   5 C5           1.2243    -0.6992     0.0012 C.ar         1    LIG   0.0000
   6 C6           0.0155    -0.0109     0.0066 C.ar         1    LIG   0.0000
   7 C7          -0.0210     1.3778     0.0109 C.ar         1    LIG   0.0000
   8 Cl8         -1.5722     2.2484     0.0290 Cl           1    LIG   0.0000
   9 C9           1.2251    -2.2250     0.0212 C.3          1    LIG   0.0000
  10 C10          2.5601    -2.8051    -0.4179 C.3          1    LIG   0.0000
  11 N11          2.7572    -2.6889    -1.8704 N.3          1    LIG   0.0000
  12 C12          1.8210    -3.6182    -2.5219 C.3          1    LIG   0.0000
  13 C13          1.9849    -3.5875    -4.0337 C.3          1    LIG   0.0000
  14 C14          1.8255    -2.1470    -4.4936 C.3          1    LIG   0.0000
  15 C15          2.7808    -1.2633    -3.7055 C.3          1    LIG   0.0000
  16 O16          2.5822    -1.3976    -2.3037 O.3          1    LIG   0.0000
  17 C17          3.6993    -2.1370     0.3350 C.3          1    LIG   0.0000
  18 C18          3.7707    -0.6788    -0.0798 C.3          1    LIG   0.0000
  19 H            2.5650    -3.7773    -0.1836 H            1    LIG   0.0000
  20 H            3.2490     1.9291    -0.0143 H            1    LIG   0.0000
  21 H           -0.8424    -0.5247     0.0075 H            1    LIG   0.0000
  22 H            0.5117    -2.5554    -0.5967 H            1    LIG   0.0000
  23 H            1.0299    -2.5349     0.9518 H            1    LIG   0.0000
  24 H            0.8846    -3.3555    -2.2892 H            1    LIG   0.0000
  25 H            1.9987    -4.5455    -2.1926 H            1    LIG   0.0000
  26 H            1.2862    -4.1601    -4.4626 H            1    LIG   0.0000
  27 H            2.8923    -3.9253    -4.2837 H            1    LIG   0.0000
  28 H            2.0366    -2.0817    -5.4689 H            1    LIG   0.0000
  29 H            0.8847    -1.8473    -4.3354 H            1    LIG   0.0000
  30 H            3.7207    -1.5236    -3.9265 H            1    LIG   0.0000
  31 H            2.6292    -0.3095    -3.9649 H            1    LIG   0.0000
  32 H            4.5616    -2.5922     0.1129 H            1    LIG   0.0000
  33 H            3.5336    -2.1987     1.3192 H            1    LIG   0.0000
  34 H            4.4036    -0.2036     0.5315 H            1    LIG   0.0000
  35 H            4.1137    -0.6301    -1.0179 H            1    LIG   0.0000
@<TRIPOS>BOND
   1        1        2 1
   2        2        3 ar
   3        3        4 ar
   4        4        5 ar
   5        5        6 ar
   6        6        7 ar
   7        7        2 ar
   8        7        8 1
   9        5        9 1
  10        9       10 1
  11       10       11 1
  12       11       12 1
  13       12       13 1
  14       13       14 1
  15       14       15 1
  16       15       16 1
  17       16       11 1
  18       10       17 1
  19       17       18 1
  20       18        4 1
  21       10       19 1
  22        3       20 1
  23        6       21 1
  24        9       22 1
  25        9       23 1
  26       12       24 1
  27       12       25 1
  28       13       26 1
  29       13       27 1
  30       14       28 1
  31       14       29 1
  32       15       30 1
  33       15       31 1
  34       17       32 1
  35       17       33 1
  36       18       34 1
  37       18       35 1

@<TRIPOS>MOLECULE

  35   37
SMALL
USER_CHARGES
@<TRIPOS>ATOM
   1 Cl1          1.1477     3.8663     0.0117 Cl           1    LIG   0.0000
   2 C2           1.1749     2.0868     0.0032 C.ar         1    LIG   0.0000
   3 C3           2.3924     1.4132    -0.0106 C.ar         1    LIG   0.0000
   4 C4           2.4186     0.0206    -0.0193 C.ar         1    LIG   0.0000
   5 C5           1.2243    -0.6992     0.0012 C.ar         1    LIG   0.0000
   6 C6           0.0155    -0.0109     0.0066 C.ar         1    LIG   0.0000
   7 C7          -0.0210     1.3778     0.0109 C.ar         1    LIG   0.0000
   8 Cl8         -1.5722     2.2484     0.0290 Cl           1    LIG   0.0000
   9 C9           1.2251    -2.2250     0.0212 C.3          1    LIG   0.0000
  10 C10          2.5601    -2.8051    -0.4179 C.3          1    LIG   0.0000
  11 N11          2.7572    -2.6889    -1.8704 N.3          1    LIG   0.0000
  12 C12          2.1381    -1.4264    -2.3035 C.3          1    LIG   0.0000
  13 C13          2.2656    -1.2440    -3.8080 C.3          1    LIG   0.0000
  14 C14          3.7384    -1.3507    -4.1703 C.3          1    LIG   0.0000
  15 C15          4.2966    -2.6508    -3.6109 C.3          1    LIG   0.0000
  16 O16          4.0870    -2.7496    -2.2077 O.3          1    LIG   0.0000
  17 C17          3.6993    -2.1370     0.3350 C.3          1    LIG   0.0000
  18 C18          3.7707    -0.6788    -0.0798 C.3          1    LIG   0.0000
  19 H            2.5650    -3.7773    -0.1836 H            1    LIG   0.0000
  20 H            3.2490     1.9291    -0.0143 H            1    LIG   0.0000
  21 H           -0.8424    -0.5247     0.0075 H            1    LIG   0.0000
  22 H            0.5117    -2.5554    -0.5967 H            1    LIG   0.0000
  23 H            1.0299    -2.5349     0.9518 H            1    LIG   0.0000
  24 H            2.5924    -0.6644    -1.8421 H            1    LIG   0.0000
  25 H            1.1691    -1.4359    -2.0563 H            1    LIG   0.0000
  26 H            1.9153    -0.3452    -4.0719 H            1    LIG   0.0000
  27 H            1.7470    -1.9559    -4.2815 H            1    LIG   0.0000
  28 H            3.8398    -1.3436    -5.1651 H            1    LIG   0.0000
  29 H            4.2363    -0.5768    -3.7789 H            1    LIG   0.0000
  30 H            3.8427    -3.4194    -4.0617 H            1    LIG   0.0000
  31 H            5.2786    -2.6885    -3.7958 H            1    LIG   0.0000
  32 H            4.5616    -2.5922     0.1129 H            1    LIG   0.0000
  33 H            3.5336    -2.1987     1.3192 H            1    LIG   0.0000
  34 H            4.4036    -0.2036     0.5315 H            1    LIG   0.0000
  35 H            4.1137    -0.6301    -1.0179 H            1    LIG   0.0000
@<TRIPOS>BOND
   1        1        2 1
   2        2        3 ar
   3        3        4 ar
   4        4        5 ar
   5        5        6 ar
   6        6        7 ar
   7        7        2 ar
   8        7        8 1
   9        5        9 1
  10        9       10 1
  11       10       11 1
  12       11       12 1
  13       12       13 1
  14       13       14 1
  15       14       15 1
  16       15       16 1
  17       16       11 1
  18       10       17 1
  19       17       18 1
  20       18        4 1
  21       10       19 1
  22        3       20 1
  23        6       21 1
  24        9       22 1
  25        9       23 1
  26       12       24 1
  27       12       25 1
  28       13       26 1
  29       13       27 1
  30       14       28 1
  31       14       29 1
  32       15       30 1
  33       15       31 1
  34       17       32 1
  35       17       33 1
  36       18       34 1
  37       18       35 1

@<TRIPOS>MOLECULE

  35   37
SMALL
USER_CHARGES
@<TRIPOS>ATOM
   1 Cl1          1.1477     3.8663     0.0117 Cl           1    LIG   0.0000
   2 C2           1.1749     2.0868     0.0032 C.ar         1    LIG   0.0000
   3 C3           2.3924     1.4132    -0.0106 C.ar         1    LIG   0.0000
   4 C4           2.4186     0.0206    -0.0193 C.ar         1    LIG   0.0000
   5 C5           1.2243    -0.6992     0.0012 C.ar         1    LIG   0.0000
   6 C6           0.0155    -0.0109     0.0066 C.ar         1    LIG   0.0000
   7 C7          -0.0210     1.3778     0.0109 C.ar         1    LIG   0.0000
   8 Cl8         -1.5722     2.2484     0.0290 Cl           1    LIG   0.0000
   9 C9           1.2251    -2.2250     0.0212 C.3          1    LIG   0.0000
  10 C10          2.5601    -2.8051    -0.4179 C.3          1    LIG   0.0000
  11 N11          2.7572    -2.6889    -1.8704 N.3          1    LIG   0.0000
  12 C12          4.0684    -3.2749    -2.1895 C.3          1    LIG   0.0000
  13 C13          4.3692    -3.1627    -3.6762 C.3          1    LIG   0.0000
  14 C14          3.2191    -3.8032    -4.4370 C.3          1    LIG   0.0000
  15 C15          1.9091    -3.1811    -3.9773 C.3          1    LIG   0.0000
  16 O16          1.7417    -3.2938    -2.5695 O.3          1    LIG   0.0000
  17 C17          3.6993    -2.1370     0.3350 C.3          1    LIG   0.0000
  18 C18          3.7707    -0.6788    -0.0798 C.3          1    LIG   0.0000
  19 H            2.5650    -3.7773    -0.1836 H            1    LIG   0.0000
  20 H            3.2490     1.9291    -0.0143 H            1    LIG   0.0000
  21 H           -0.8424    -0.5247     0.0075 H            1    LIG   0.0000
  22 H            0.5117    -2.5554    -0.5967 H            1    LIG   0.0000
  23 H            1.0299    -2.5349     0.9518 H            1    LIG   0.0000
  24 H            4.0674    -4.2402    -1.9281 H            1    LIG   0.0000
  25 H            4.7766    -2.7911    -1.6752 H            1    LIG   0.0000
  26 H            5.2228    -3.6392    -3.8868 H            1    LIG   0.0000
  27 H            4.4525    -2.2001    -3.9340 H            1    LIG   0.0000
  28 H            3.3381    -3.6467    -5.4175 H            1    LIG   0.0000
  29 H            3.2044    -4.7866    -4.2558 H            1    LIG   0.0000
  30 H            1.9039    -2.2131    -4.2282 H            1    LIG   0.0000
  31 H            1.1509    -3.6476    -4.4326 H            1    LIG   0.0000
  32 H            4.5616    -2.5922     0.1129 H            1    LIG   0.0000
  33 H            3.5336    -2.1987     1.3192 H            1    LIG   0.0000
  34 H            4.4036    -0.2036     0.5315 H            1    LIG   0.0000
  35 H            4.1137    -0.6301    -1.0179 H            1    LIG   0.0000
@<TRIPOS>BOND
   1        1        2 1
   2        2        3 ar
   3        3        4 ar
   4        4        5 ar
   5        5        6 ar
   6        6        7 ar
   7        7        2 ar
   8        7        8 1
   9        5        9 1
  10        9       10 1
  11       10       11 1
  12       11       12 1
  13       12       13 1
  14       13       14 1
  15       14       15 1
  16       15       16 1
  17       16       11 1
  18       10       17 1
  19       17       18 1
  20       18        4 1
  21       10       19 1
  22        3       20 1
  23        6       21 1
  24        9       22 1
  25        9       23 1
  26       12       24 1
  27       12       25 1
  28       13       26 1
  29       13       27 1
  30       14       28 1
  31       14       29 1
  32       15       30 1
  33       15       31 1
  34       17       32 1
  35       17       33 1
  36       18       34 1
  37       18       35 1

@<TRIPOS>MOLECULE

  35   37
SMALL
USER_CHARGES
@<TRIPOS>ATOM
   1 Cl1          1.1477     3.8663     0.0117 Cl           1    LIG   0.0000
   2 C2           1.1749     2.0868     0.0032 C.ar         1    LIG   0.0000
   3 C3           2.3924     1.4132    -0.0106 C.ar         1    LIG   0.0000
   4 C4           2.4186     0.0206    -0.0193 C.ar         1    LIG   0.0000
   5 C5           1.2243    -0.6992     0.0012 C.ar         1    LIG   0.0000
   6 C6           0.0155    -0.0109     0.0066 C.ar         1    LIG   0.0000
   7 C7          -0.0210     1.3778     0.0109 C.ar         1    LIG   0.0000
   8 Cl8         -1.5722     2.2484     0.0290 Cl           1    LIG   0.0000
   9 C9           1.2251    -2.2250     0.0212 C.3          1    LIG   0.0000
  10 C10          2.5601    -2.8051    -0.4179 C.3          1    LIG   0.0000
  11 N11          2.7574    -2.6887    -1.8719 N.3          1    LIG   0.0000
  12 C12          1.8284    -3.6122    -2.5426 C.3          1    LIG   0.0000
  13 C13          1.9477    -3.5149    -4.0564 C.3          1    LIG   0.0000
  14 C14          3.3982    -3.7722    -4.4314 C.3          1    LIG   0.0000
  15 C15          4.2702    -2.8105    -3.6368 C.3          1    LIG   0.0000
  16 O16          4.0609    -2.9277    -2.2343 O.3          1    LIG   0.0000
  17 C17          3.6993    -2.1370     0.3350 C.3          1    LIG   0.0000
  18 C18          3.7707    -0.6788    -0.0798 C.3          1    LIG   0.0000
  19 H            2.5650    -3.7773    -0.1836 H            1    LIG   0.0000
  20 H            3.2490     1.9291    -0.0143 H            1    LIG   0.0000
  21 H           -0.8424    -0.5247     0.0075 H            1    LIG   0.0000
  22 H            0.5117    -2.5554    -0.5967 H            1    LIG   0.0000
  23 H            1.0299    -2.5349     0.9518 H            1    LIG   0.0000
  24 H            0.8924    -3.3841    -2.2745 H            1    LIG   0.0000
  25 H            2.0378    -4.5479    -2.2589 H            1    LIG   0.0000
  26 H            1.6756    -2.6019    -4.3602 H            1    LIG   0.0000
  27 H            1.3594    -4.1989    -4.4877 H            1    LIG   0.0000
  28 H            3.6437    -4.7155    -4.2082 H            1    LIG   0.0000
  29 H            3.5277    -3.6168    -5.4107 H            1    LIG   0.0000
  30 H            5.2302    -3.0064    -3.8366 H            1    LIG   0.0000
  31 H            4.0556    -1.8748    -3.9172 H            1    LIG   0.0000
  32 H            4.5616    -2.5922     0.1129 H            1    LIG   0.0000
  33 H            3.5336    -2.1987     1.3192 H            1    LIG   0.0000
  34 H            4.4036    -0.2036     0.5315 H            1    LIG   0.0000
  35 H            4.1137    -0.6301    -1.0179 H            1    LIG   0.0000
@<TRIPOS>BOND
   1        1        2 1
   2        2        3 ar
   3        3        4 ar
   4        4        5 ar
   5        5        6 ar
   6        6        7 ar
   7        7        2 ar
   8        7        8 1
   9        5        9 1
  10        9       10 1
  11       10       11 1
  12       11       12 1
  13       12       13 1
  14       13       14 1
  15       14       15 1
  16       15       16 1
  17       16       11 1
  18       10       17 1
  19       17       18 1
  20       18        4 1
  21       10       19 1
  22        3       20 1
  23        6       21 1
  24        9       22 1
  25        9       23 1
  26       12       24 1
  27       12       25 1
  28       13       26 1
  29       13       27 1
  30       14       28 1
  31       14       29 1
  32       15       30 1
  33       15       31 1
  34       17       32 1
  35       17       33 1
  36       18       34 1
  37       18       35 1

@<TRIPOS>MOLECULE

  35   37
SMALL
USER_CHARGES
@<TRIPOS>ATOM
   1 Cl1          1.1482     3.8660     0.0137 Cl           1    LIG   0.0000
   2 C2           1.1737     2.0862    -0.0058 C.ar         1    LIG   0.0000
   3 C3           2.3926     1.4223    -0.0369 C.ar         1    LIG   0.0000
   4 C4           2.4210     0.0293    -0.0767 C.ar         1    LIG   0.0000
   5 C5           1.2198    -0.6746    -0.0619 C.ar         1    LIG   0.0000
   6 C6          -0.0030    -0.0129    -0.0117 C.ar         1    LIG   0.0000
   7 C7          -0.0219     1.3762     0.0045 C.ar         1    LIG   0.0000
   8 Cl8         -1.5724     2.2491     0.0315 Cl           1    LIG   0.0000
   9 C9           1.3130    -2.1876    -0.1276 C.3          1    LIG   0.0000
  10 C10          2.2193    -2.5342    -1.2924 C.3          1    LIG   0.0000
  11 N11          1.4830    -2.2413    -2.5310 N.3          1    LIG   0.0000
  12 C12          2.4316    -1.6382    -3.4802 C.3          1    LIG   0.0000
  13 C13          1.7396    -1.2690    -4.7833 C.3          1    LIG   0.0000
  14 C14          1.0564    -2.5163    -5.3212 C.3          1    LIG   0.0000
  15 C15          0.1618    -3.1012    -4.2385 C.3          1    LIG   0.0000
  16 O16          0.8892    -3.3675    -3.0458 O.3          1    LIG   0.0000
  17 C17          3.5000    -1.7085    -1.3545 C.3          1    LIG   0.0000
  18 C18          3.6922    -0.7921    -0.1577 C.3          1    LIG   0.0000
  19 H            2.4487    -3.5070    -1.2608 H            1    LIG   0.0000
  20 H            3.2472     1.9417    -0.0307 H            1    LIG   0.0000
  21 H           -0.8580    -0.5310     0.0123 H            1    LIG   0.0000
  22 H            0.4048    -2.5802    -0.2723 H            1    LIG   0.0000
  23 H            1.6985    -2.5439     0.7235 H            1    LIG   0.0000
  24 H            3.1626    -2.2929    -3.6723 H            1    LIG   0.0000
  25 H            2.8221    -0.8129    -3.0722 H            1    LIG   0.0000
  26 H            2.4138    -0.9394    -5.4442 H            1    LIG   0.0000
  27 H            1.0598    -0.5549    -4.6163 H            1    LIG   0.0000
  28 H            0.5034    -2.2773    -6.1194 H            1    LIG   0.0000
  29 H            1.7475    -3.1895    -5.5842 H            1    LIG   0.0000
  30 H           -0.5689    -2.4498    -4.0344 H            1    LIG   0.0000
  31 H           -0.2367    -3.9552    -4.5731 H            1    LIG   0.0000
  32 H            3.4743    -1.1470    -2.1816 H            1    LIG   0.0000
  33 H            4.2780    -2.3350    -1.4010 H            1    LIG   0.0000
  34 H            3.8172    -1.3277     0.6774 H            1    LIG   0.0000
  35 H            4.4851    -0.1983    -0.2947 H            1    LIG   0.0000
@<TRIPOS>BOND
   1        1        2 1
   2        2        3 ar
   3        3        4 ar
   4        4        5 ar
   5        5        6 ar
   6        6        7 ar
   7        7        2 ar
   8        7        8 1
   9        5        9 1
  10        9       10 1
  11       10       11 1
  12       11       12 1
  13       12       13 1
  14       13       14 1
  15       14       15 1
  16       15       16 1
  17       16       11 1
  18       10       17 1
  19       17       18 1
  20       18        4 1
  21       10       19 1
  22        3       20 1
  23        6       21 1
  24        9       22 1
  25        9       23 1
  26       12       24 1
  27       12       25 1
  28       13       26 1
  29       13       27 1
  30       14       28 1
  31       14       29 1
  32       15       30 1
  33       15       31 1
  34       17       32 1
  35       17       33 1
  36       18       34 1
  37       18       35 1

@<TRIPOS>MOLECULE

  35   37
SMALL
USER_CHARGES
@<TRIPOS>ATOM
   1 Cl1          1.1482     3.8660     0.0137 Cl           1    LIG   0.0000
   2 C2           1.1737     2.0862    -0.0058 C.ar         1    LIG   0.0000
   3 C3           2.3926     1.4223    -0.0369 C.ar         1    LIG   0.0000
   4 C4           2.4210     0.0293    -0.0767 C.ar         1    LIG   0.0000
   5 C5           1.2198    -0.6746    -0.0619 C.ar         1    LIG   0.0000
   6 C6          -0.0030    -0.0129    -0.0117 C.ar         1    LIG   0.0000
   7 C7          -0.0219     1.3762     0.0045 C.ar         1    LIG   0.0000
   8 Cl8         -1.5724     2.2491     0.0315 Cl           1    LIG   0.0000
   9 C9           1.3130    -2.1876    -0.1276 C.3          1    LIG   0.0000
  10 C10          2.2193    -2.5342    -1.2924 C.3          1    LIG   0.0000
  11 N11          1.4834    -2.2415    -2.5303 N.3          1    LIG   0.0000
  12 C12          1.3505    -0.7838    -2.6593 C.3          1    LIG   0.0000
  13 C13          0.6835    -0.4213    -3.9756 C.3          1    LIG   0.0000
  14 C14          0.1473    -1.6740    -4.6486 C.3          1    LIG   0.0000
  15 C15          1.2916    -2.6644    -4.8161 C.3          1    LIG   0.0000
  16 O16          2.0874    -2.7771    -3.6405 O.3          1    LIG   0.0000
  17 C17          3.5000    -1.7085    -1.3545 C.3          1    LIG   0.0000
  18 C18          3.6922    -0.7921    -0.1577 C.3          1    LIG   0.0000
  19 H            2.4487    -3.5070    -1.2608 H            1    LIG   0.0000
  20 H            3.2472     1.9417    -0.0307 H            1    LIG   0.0000
  21 H           -0.8580    -0.5310     0.0123 H            1    LIG   0.0000
  22 H            0.4048    -2.5802    -0.2723 H            1    LIG   0.0000
  23 H            1.6985    -2.5439     0.7235 H            1    LIG   0.0000
  24 H            2.2587    -0.3669    -2.6254 H            1    LIG   0.0000
  25 H            0.7957    -0.4364    -1.9033 H            1    LIG   0.0000
  26 H            1.3524     0.0169    -4.5762 H            1    LIG   0.0000
  27 H           -0.0719     0.2103    -3.8013 H            1    LIG   0.0000
  28 H           -0.5693    -2.0803    -4.0817 H            1    LIG   0.0000
  29 H           -0.2293    -1.4399    -5.5449 H            1    LIG   0.0000
  30 H            0.9098    -3.5628    -5.0330 H            1    LIG   0.0000
  31 H            1.8734    -2.3586    -5.5698 H            1    LIG   0.0000
  32 H            3.4743    -1.1470    -2.1816 H            1    LIG   0.0000
  33 H            4.2780    -2.3350    -1.4010 H            1    LIG   0.0000
  34 H            3.8172    -1.3277     0.6774 H            1    LIG   0.0000
  35 H            4.4851    -0.1983    -0.2947 H            1    LIG   0.0000
@<TRIPOS>BOND
   1        1        2 1
   2        2        3 ar
   3        3        4 ar
   4        4        5 ar
   5        5        6 ar
   6        6        7 ar
   7        7        2 ar
   8        7        8 1
   9        5        9 1
  10        9       10 1
  11       10       11 1
  12       11       12 1
  13       12       13 1
  14       13       14 1
  15       14       15 1
  16       15       16 1
  17       16       11 1
  18       10       17 1
  19       17       18 1
  20       18        4 1
  21       10       19 1
  22        3       20 1
  23        6       21 1
  24        9       22 1
  25        9       23 1
  26       12       24 1
  27       12       25 1
  28       13       26 1
  29       13       27 1
  30       14       28 1
  31       14       29 1
  32       15       30 1
  33       15       31 1
  34       17       32 1
  35       17       33 1
  36       18       34 1
  37       18       35 1

@<TRIPOS>MOLECULE

  35   37
SMALL
USER_CHARGES
@<TRIPOS>ATOM
   1 Cl1          1.1482     3.8660     0.0137 Cl           1    LIG   0.0000
   2 C2           1.1737     2.0862    -0.0058 C.ar         1    LIG   0.0000
   3 C3           2.3926     1.4223    -0.0369 C.ar         1    LIG   0.0000
   4 C4           2.4210     0.0293    -0.0767 C.ar         1    LIG   0.0000
   5 C5           1.2198    -0.6746    -0.0619 C.ar         1    LIG   0.0000
   6 C6          -0.0030    -0.0129    -0.0117 C.ar         1    LIG   0.0000
   7 C7          -0.0219     1.3762     0.0045 C.ar         1    LIG   0.0000
   8 Cl8         -1.5724     2.2491     0.0315 Cl           1    LIG   0.0000
   9 C9           1.3130    -2.1876    -0.1276 C.3          1    LIG   0.0000
  10 C10          2.2193    -2.5342    -1.2924 C.3          1    LIG   0.0000
  11 N11          1.4834    -2.2415    -2.5303 N.3          1    LIG   0.0000
  12 C12          1.7645    -3.3071    -3.5021 C.3          1    LIG   0.0000
  13 C13          0.9481    -3.1067    -4.7679 C.3          1    LIG   0.0000
  14 C14          0.2704    -1.7467    -4.7389 C.3          1    LIG   0.0000
  15 C15         -0.5665    -1.6467    -3.4710 C.3          1    LIG   0.0000
  16 O16          0.1326    -2.1145    -2.3218 O.3          1    LIG   0.0000
  17 C17          3.5000    -1.7085    -1.3545 C.3          1    LIG   0.0000
  18 C18          3.6922    -0.7921    -0.1577 C.3          1    LIG   0.0000
  19 H            2.4487    -3.5070    -1.2608 H            1    LIG   0.0000
  20 H            3.2472     1.9417    -0.0307 H            1    LIG   0.0000
  21 H           -0.8580    -0.5310     0.0123 H            1    LIG   0.0000
  22 H            0.4048    -2.5802    -0.2723 H            1    LIG   0.0000
  23 H            1.6985    -2.5439     0.7235 H            1    LIG   0.0000
  24 H            1.5310    -4.1911    -3.0971 H            1    LIG   0.0000
  25 H            2.7374    -3.2928    -3.7330 H            1    LIG   0.0000
  26 H            0.2523    -3.8223    -4.8300 H            1    LIG   0.0000
  27 H            1.5520    -3.1590    -5.5633 H            1    LIG   0.0000
  28 H            0.9629    -1.0253    -4.7431 H            1    LIG   0.0000
  29 H           -0.3193    -1.6472    -5.5404 H            1    LIG   0.0000
  30 H           -0.8180    -0.6897    -3.3266 H            1    LIG   0.0000
  31 H           -1.3946    -2.1949    -3.5885 H            1    LIG   0.0000
  32 H            3.4743    -1.1470    -2.1816 H            1    LIG   0.0000
  33 H            4.2780    -2.3350    -1.4010 H            1    LIG   0.0000
  34 H            3.8172    -1.3277     0.6774 H            1    LIG   0.0000
  35 H            4.4851    -0.1983    -0.2947 H            1    LIG   0.0000
@<TRIPOS>BOND
   1        1        2 1
   2        2        3 ar
   3        3        4 ar
   4        4        5 ar
   5        5        6 ar
   6        6        7 ar
   7        7        2 ar
   8        7        8 1
   9        5        9 1
  10        9       10 1
  11       10       11 1
  12       11       12 1
  13       12       13 1
  14       13       14 1
  15       14       15 1
  16       15       16 1
  17       16       11 1
  18       10       17 1
  19       17       18 1
  20       18        4 1
  21       10       19 1
  22        3       20 1
  23        6       21 1
  24        9       22 1
  25        9       23 1
  26       12       24 1
  27       12       25 1
  28       13       26 1
  29       13       27 1
  30       14       28 1
  31       14       29 1
  32       15       30 1
  33       15       31 1
  34       17       32 1
  35       17       33 1
  36       18       34 1
  37       18       35 1

@<TRIPOS>MOLECULE

  35   37
SMALL
USER_CHARGES
@<TRIPOS>ATOM
   1 Cl1          1.1482     3.8660     0.0137 Cl           1    LIG   0.0000
   2 C2           1.1737     2.0862    -0.0058 C.ar         1    LIG   0.0000
   3 C3           2.3926     1.4223    -0.0369 C.ar         1    LIG   0.0000
   4 C4           2.4210     0.0293    -0.0767 C.ar         1    LIG   0.0000
   5 C5           1.2198    -0.6746    -0.0619 C.ar         1    LIG   0.0000
   6 C6          -0.0030    -0.0129    -0.0117 C.ar         1    LIG   0.0000
   7 C7          -0.0219     1.3762     0.0045 C.ar         1    LIG   0.0000
   8 Cl8         -1.5724     2.2491     0.0315 Cl           1    LIG   0.0000
   9 C9           1.3130    -2.1876    -0.1276 C.3          1    LIG   0.0000
  10 C10          2.2193    -2.5342    -1.2924 C.3          1    LIG   0.0000
  11 N11          1.4832    -2.2414    -2.5306 N.3          1    LIG   0.0000
  12 C12          0.0920    -2.6712    -2.3189 C.3          1    LIG   0.0000
  13 C13         -0.7088    -2.5621    -3.6060 C.3          1    LIG   0.0000
  14 C14          0.1008    -1.8094    -4.6501 C.3          1    LIG   0.0000
  15 C15          1.4021    -2.5707    -4.8463 C.3          1    LIG   0.0000
  16 O16          2.0607    -2.8562    -3.6155 O.3          1    LIG   0.0000
  17 C17          3.5000    -1.7085    -1.3545 C.3          1    LIG   0.0000
  18 C18          3.6922    -0.7921    -0.1577 C.3          1    LIG   0.0000
  19 H            2.4487    -3.5070    -1.2608 H            1    LIG   0.0000
  20 H            3.2472     1.9417    -0.0307 H            1    LIG   0.0000
  21 H           -0.8580    -0.5310     0.0123 H            1    LIG   0.0000
  22 H            0.4048    -2.5802    -0.2723 H            1    LIG   0.0000
  23 H            1.6985    -2.5439     0.7235 H            1    LIG   0.0000
  24 H           -0.3279    -2.0906    -1.6213 H            1    LIG   0.0000
  25 H            0.0863    -3.6219    -2.0088 H            1    LIG   0.0000
  26 H           -1.5605    -2.0695    -3.4270 H            1    LIG   0.0000
  27 H           -0.9191    -3.4789    -3.9456 H            1    LIG   0.0000
  28 H           -0.4052    -1.7686    -5.5117 H            1    LIG   0.0000
  29 H            0.2919    -0.8811    -4.3314 H            1    LIG   0.0000
  30 H            1.2015    -3.4338    -5.3099 H            1    LIG   0.0000
  31 H            2.0124    -2.0203    -5.4161 H            1    LIG   0.0000
  32 H            3.4743    -1.1470    -2.1816 H            1    LIG   0.0000
  33 H            4.2780    -2.3350    -1.4010 H            1    LIG   0.0000
  34 H            3.8172    -1.3277     0.6774 H            1    LIG   0.0000
  35 H            4.4851    -0.1983    -0.2947 H            1    LIG   0.0000
@<TRIPOS>BOND
   1        1        2 1
   2        2        3 ar
   3        3        4 ar
   4        4        5 ar
   5        5        6 ar
   6        6        7 ar
   7        7        2 ar
   8        7        8 1
   9        5        9 1
  10        9       10 1
  11       10       11 1
  12       11       12 1
  13       12       13 1
  14       13       14 1
  15       14       15 1
  16       15       16 1
  17       16       11 1
  18       10       17 1
  19       17       18 1
  20       18        4 1
  21       10       19 1
  22        3       20 1
  23        6       21 1
  24        9       22 1
  25        9       23 1
  26       12       24 1
  27       12       25 1
  28       13       26 1
  29       13       27 1
  30       14       28 1
  31       14       29 1
  32       15       30 1
  33       15       31 1
  34       17       32 1
  35       17       33 1
  36       18       34 1
  37       18       35 1

