@<TRIPOS>MOLECULE
*****
 35 37 0 0 0
SMALL
USER_CHARGES

@<TRIPOS>ATOM
      1 Cl1         1.1477    3.8663    0.0117 Cl      1  LIG1        0.0000
      2 C2          1.1749    2.0868    0.0032 C.ar    1  LIG1        0.0000
      3 C3          2.3924    1.4132   -0.0106 C.ar    1  LIG1        0.0000
      4 C4          2.4186    0.0206   -0.0193 C.ar    1  LIG1        0.0000
      5 C5          1.2243   -0.6992    0.0012 C.ar    1  LIG1        0.0000
      6 C6          0.0155   -0.0109    0.0066 C.ar    1  LIG1        0.0000
      7 C7         -0.0210    1.3778    0.0109 C.ar    1  LIG1        0.0000
      8 Cl8        -1.5722    2.2484    0.0290 Cl      1  LIG1        0.0000
      9 C9          1.2251   -2.2250    0.0212 C.3     1  LIG1        0.0000
     10 C10         2.5601   -2.8051   -0.4179 C.3     1  LIG1        0.0000
     11 N11         2.7574   -2.6887   -1.8719 N.3     1  LIG1        0.0000
     12 C12         1.8284   -3.6122   -2.5426 C.3     1  LIG1        0.0000
     13 C13         1.9477   -3.5149   -4.0564 C.3     1  LIG1        0.0000
     14 C14         3.3982   -3.7722   -4.4314 C.3     1  LIG1        0.0000
     15 C15         4.2702   -2.8105   -3.6368 C.3     1  LIG1        0.0000
     16 O16         4.0609   -2.9277   -2.2343 O.3     1  LIG1        0.0000
     17 C17         3.6993   -2.1370    0.3350 C.3     1  LIG1        0.0000
     18 C18         3.7707   -0.6788   -0.0798 C.3     1  LIG1        0.0000
     19 H           2.5650   -3.7773   -0.1836 H       1  LIG1        0.0000
     20 H           3.2490    1.9291   -0.0143 H       1  LIG1        0.0000
     21 H          -0.8424   -0.5247    0.0075 H       1  LIG1        0.0000
     22 H           0.5117   -2.5554   -0.5967 H       1  LIG1        0.0000
     23 H           1.0299   -2.5349    0.9518 H       1  LIG1        0.0000
     24 H           0.8924   -3.3841   -2.2745 H       1  LIG1        0.0000
     25 H           2.0378   -4.5479   -2.2589 H       1  LIG1        0.0000
     26 H           1.6756   -2.6019   -4.3602 H       1  LIG1        0.0000
     27 H           1.3594   -4.1989   -4.4877 H       1  LIG1        0.0000
     28 H           3.6437   -4.7155   -4.2082 H       1  LIG1        0.0000
     29 H           3.5277   -3.6168   -5.4107 H       1  LIG1        0.0000
     30 H           5.2302   -3.0064   -3.8366 H       1  LIG1        0.0000
     31 H           4.0556   -1.8748   -3.9172 H       1  LIG1        0.0000
     32 H           4.5616   -2.5922    0.1129 H       1  LIG1        0.0000
     33 H           3.5336   -2.1987    1.3192 H       1  LIG1        0.0000
     34 H           4.4036   -0.2036    0.5315 H       1  LIG1        0.0000
     35 H           4.1137   -0.6301   -1.0179 H       1  LIG1        0.0000
@<TRIPOS>BOND
     1     1     2    1
     2     2     3   ar
     3     3     4   ar
     4     4     5   ar
     5     5     6   ar
     6     6     7   ar
     7     7     2   ar
     8     7     8    1
     9     5     9    1
    10     9    10    1
    11    10    11    1
    12    11    12    1
    13    12    13    1
    14    13    14    1
    15    14    15    1
    16    15    16    1
    17    16    11    1
    18    10    17    1
    19    17    18    1
    20    18     4    1
    21    10    19    1
    22     3    20    1
    23     6    21    1
    24     9    22    1
    25     9    23    1
    26    12    24    1
    27    12    25    1
    28    13    26    1
    29    13    27    1
    30    14    28    1
    31    14    29    1
    32    15    30    1
    33    15    31    1
    34    17    32    1
    35    17    33    1
    36    18    34    1
    37    18    35    1
