@<TRIPOS>MOLECULE
*****
 35 37 0 0 0
SMALL
USER_CHARGES

@<TRIPOS>ATOM
      1 Cl1         1.1482    3.8660    0.0137 Cl      1  LIG1        0.0000
      2 C2          1.1737    2.0862   -0.0058 C.ar    1  LIG1        0.0000
      3 C3          2.3926    1.4223   -0.0369 C.ar    1  LIG1        0.0000
      4 C4          2.4210    0.0293   -0.0767 C.ar    1  LIG1        0.0000
      5 C5          1.2198   -0.6746   -0.0619 C.ar    1  LIG1        0.0000
      6 C6         -0.0030   -0.0129   -0.0117 C.ar    1  LIG1        0.0000
      7 C7         -0.0219    1.3762    0.0045 C.ar    1  LIG1        0.0000
      8 Cl8        -1.5724    2.2491    0.0315 Cl      1  LIG1        0.0000
      9 C9          1.3130   -2.1876   -0.1276 C.3     1  LIG1        0.0000
     10 C10         2.2193   -2.5342   -1.2924 C.3     1  LIG1        0.0000
     11 N11         1.4834   -2.2415   -2.5303 N.3     1  LIG1        0.0000
     12 C12         1.7645   -3.3071   -3.5021 C.3     1  LIG1        0.0000
     13 C13         0.9481   -3.1067   -4.7679 C.3     1  LIG1        0.0000
     14 C14         0.2704   -1.7467   -4.7389 C.3     1  LIG1        0.0000
     15 C15        -0.5665   -1.6467   -3.4710 C.3     1  LIG1        0.0000
     16 O16         0.1326   -2.1145   -2.3218 O.3     1  LIG1        0.0000
     17 C17         3.5000   -1.7085   -1.3545 C.3     1  LIG1        0.0000
     18 C18         3.6922   -0.7921   -0.1577 C.3     1  LIG1        0.0000
     19 H           2.4487   -3.5070   -1.2608 H       1  LIG1        0.0000
     20 H           3.2472    1.9417   -0.0307 H       1  LIG1        0.0000
     21 H          -0.8580   -0.5310    0.0123 H       1  LIG1        0.0000
     22 H           0.4048   -2.5802   -0.2723 H       1  LIG1        0.0000
     23 H           1.6985   -2.5439    0.7235 H       1  LIG1        0.0000
     24 H           1.5310   -4.1911   -3.0971 H       1  LIG1        0.0000
     25 H           2.7374   -3.2928   -3.7330 H       1  LIG1        0.0000
     26 H           0.2523   -3.8223   -4.8300 H       1  LIG1        0.0000
     27 H           1.5520   -3.1590   -5.5633 H       1  LIG1        0.0000
     28 H           0.9629   -1.0253   -4.7431 H       1  LIG1        0.0000
     29 H          -0.3193   -1.6472   -5.5404 H       1  LIG1        0.0000
     30 H          -0.8180   -0.6897   -3.3266 H       1  LIG1        0.0000
     31 H          -1.3946   -2.1949   -3.5885 H       1  LIG1        0.0000
     32 H           3.4743   -1.1470   -2.1816 H       1  LIG1        0.0000
     33 H           4.2780   -2.3350   -1.4010 H       1  LIG1        0.0000
     34 H           3.8172   -1.3277    0.6774 H       1  LIG1        0.0000
     35 H           4.4851   -0.1983   -0.2947 H       1  LIG1        0.0000
@<TRIPOS>BOND
     1     1     2    1
     2     2     3   ar
     3     3     4   ar
     4     4     5   ar
     5     5     6   ar
     6     6     7   ar
     7     7     2   ar
     8     7     8    1
     9     5     9    1
    10     9    10    1
    11    10    11    1
    12    11    12    1
    13    12    13    1
    14    13    14    1
    15    14    15    1
    16    15    16    1
    17    16    11    1
    18    10    17    1
    19    17    18    1
    20    18     4    1
    21    10    19    1
    22     3    20    1
    23     6    21    1
    24     9    22    1
    25     9    23    1
    26    12    24    1
    27    12    25    1
    28    13    26    1
    29    13    27    1
    30    14    28    1
    31    14    29    1
    32    15    30    1
    33    15    31    1
    34    17    32    1
    35    17    33    1
    36    18    34    1
    37    18    35    1
