@<TRIPOS>MOLECULE
*****
 35 37 0 0 0
SMALL
USER_CHARGES

@<TRIPOS>ATOM
      1 Cl1         1.1472    3.8676    0.0135 Cl      1  LIG1        0.0000
      2 C2          1.1727    2.0896    0.0040 C.ar    1  LIG1        0.0000
      3 C3          2.3974    1.4316   -0.0006 C.ar    1  LIG1        0.0000
      4 C4          2.4269    0.0453   -0.0082 C.ar    1  LIG1        0.0000
      5 C5          1.2224   -0.6566   -0.0227 C.ar    1  LIG1        0.0000
      6 C6         -0.0057   -0.0103   -0.0118 C.ar    1  LIG1        0.0000
      7 C7         -0.0201    1.3781    0.0063 C.ar    1  LIG1        0.0000
      8 Cl8        -1.5721    2.2488    0.0260 Cl      1  LIG1        0.0000
      9 C9          1.2241   -2.1752   -0.0720 C.3     1  LIG1        0.0000
     10 C10         2.5582   -2.7475    0.3867 C.3     1  LIG1        0.0000
     11 N11         2.5295   -4.1987    0.1515 N.3     1  LIG1        0.0000
     12 C12         2.5711   -4.4143   -1.3033 C.3     1  LIG1        0.0000
     13 C13         2.5081   -5.8968   -1.6373 C.3     1  LIG1        0.0000
     14 C14         3.6338   -6.5942   -0.8901 C.3     1  LIG1        0.0000
     15 C15         3.5438   -6.2435    0.5876 C.3     1  LIG1        0.0000
     16 O16         3.5622   -4.8365    0.7938 O.3     1  LIG1        0.0000
     17 C17         3.6481   -2.1027   -0.4532 C.3     1  LIG1        0.0000
     18 C18         3.7727   -0.6616    0.0112 C.3     1  LIG1        0.0000
     19 H           2.7054   -2.5543    1.3567 H       1  LIG1        0.0000
     20 H           3.2502    1.9539    0.0015 H       1  LIG1        0.0000
     21 H          -0.8590   -0.5316   -0.0169 H       1  LIG1        0.0000
     22 H           1.0501   -2.4698   -1.0116 H       1  LIG1        0.0000
     23 H           0.5001   -2.5204    0.5252 H       1  LIG1        0.0000
     24 H           3.4215   -4.0333   -1.6660 H       1  LIG1        0.0000
     25 H           1.7917   -3.9508   -1.7248 H       1  LIG1        0.0000
     26 H           2.6219   -6.0280   -2.6221 H       1  LIG1        0.0000
     27 H           1.6267   -6.2722   -1.3507 H       1  LIG1        0.0000
     28 H           3.5490   -7.5839   -1.0051 H       1  LIG1        0.0000
     29 H           4.5148   -6.2907   -1.2531 H       1  LIG1        0.0000
     30 H           2.6922   -6.6147    0.9579 H       1  LIG1        0.0000
     31 H           4.3212   -6.6519    1.0659 H       1  LIG1        0.0000
     32 H           3.3980   -2.1312   -1.4210 H       1  LIG1        0.0000
     33 H           4.5148   -2.5830   -0.3186 H       1  LIG1        0.0000
     34 H           4.1329   -0.6503    0.9441 H       1  LIG1        0.0000
     35 H           4.4033   -0.1775   -0.5954 H       1  LIG1        0.0000
@<TRIPOS>BOND
     1     1     2    1
     2     2     3   ar
     3     3     4   ar
     4     4     5   ar
     5     5     6   ar
     6     6     7   ar
     7     7     2   ar
     8     7     8    1
     9     5     9    1
    10     9    10    1
    11    10    11    1
    12    11    12    1
    13    12    13    1
    14    13    14    1
    15    14    15    1
    16    15    16    1
    17    16    11    1
    18    10    17    1
    19    17    18    1
    20    18     4    1
    21    10    19    1
    22     3    20    1
    23     6    21    1
    24     9    22    1
    25     9    23    1
    26    12    24    1
    27    12    25    1
    28    13    26    1
    29    13    27    1
    30    14    28    1
    31    14    29    1
    32    15    30    1
    33    15    31    1
    34    17    32    1
    35    17    33    1
    36    18    34    1
    37    18    35    1
