@<TRIPOS>MOLECULE

  54   58
SMALL
USER_CHARGES
@<TRIPOS>ATOM
   1 C1          -8.2888     4.9315    -2.1225 C.3          1    LIG   0.0000
   2 C2          -6.9467     4.8074    -1.4171 C.2          1    LIG   0.0000
   3 S3          -6.5195     5.5415     0.0602 S.3          1    LIG   0.0000
   4 C4          -4.9344     4.9411     0.1515 C.2          1    LIG   0.0000
   5 N5          -4.0717     5.2167     1.1738 N.2          1    LIG   0.0000
   6 C6          -2.8749     4.6714     1.1047 C.2          1    LIG   0.0000
   7 N7          -2.5382     3.8696     0.0463 N.pl3        1    LIG   0.0000
   8 N8          -1.2977     3.3358     0.0317 N.2          1    LIG   0.0000
   9 C9          -1.2821     2.0859     0.0254 C.2          1    LIG   0.0000
  10 C10         -0.0175     1.3767     0.0098 C.ar         1    LIG   0.0000
  11 C11         -0.0116    -0.0145     0.0026 C.ar         1    LIG   0.0000
  12 C12          1.2073    -0.6841    -0.0121 C.ar         1    LIG   0.0000
  13 C13          2.4069     0.0197    -0.0206 C.ar         1    LIG   0.0000
  14 C14          2.3775     1.4104    -0.0133 C.ar         1    LIG   0.0000
  15 C15          3.6230     2.1528    -0.0214 C.2          1    LIG   0.0000
  16 N16          3.6057     3.4026    -0.0148 N.2          1    LIG   0.0000
  17 N17          4.8317     3.9690    -0.0236 N.pl3        1    LIG   0.0000
  18 C18          5.1471     4.7903    -1.0736 C.2          1    LIG   0.0000
  19 N19          6.3291     5.3676    -1.1369 N.2          1    LIG   0.0000
  20 C20          7.1989     5.1042    -0.1173 C.2          1    LIG   0.0000
  21 S21          8.7677     5.7451    -0.0196 S.3          1    LIG   0.0000
  22 C22          9.2142     5.0074     1.4502 C.2          1    LIG   0.0000
  23 C23         10.5526     5.1594     2.1570 C.3          1    LIG   0.0000
  24 C24          8.1446     4.2671     1.8512 C.2          1    LIG   0.0000
  25 C25          8.2211     3.4710     3.1440 C.3          1    LIG   0.0000
  26 C26          7.0223     4.3203     0.9805 C.2          1    LIG   0.0000
  27 C27          5.7301     3.7268     0.9848 C.2          1    LIG   0.0000
  28 O28          5.3746     2.9822     1.8841 O.2          1    LIG   0.0000
  29 C29          1.1700     2.1005     0.0019 C.ar         1    LIG   0.0000
  30 C30         -3.4301     3.6142    -0.9647 C.2          1    LIG   0.0000
  31 O31         -3.0553     2.8886    -1.8716 O.2          1    LIG   0.0000
  32 C32         -4.7374     4.1734    -0.9543 C.2          1    LIG   0.0000
  33 C33         -5.8581     4.0997    -1.8257 C.2          1    LIG   0.0000
  34 C34         -5.9138     3.3153    -3.1266 C.3          1    LIG   0.0000
  35 H           -8.2703     4.4007    -2.9698 H            1    LIG   0.0000
  36 H           -9.0121     4.5829    -1.5264 H            1    LIG   0.0000
  37 H           -8.4661     5.8924    -2.3349 H            1    LIG   0.0000
  38 H           -2.2078     4.8437     1.8294 H            1    LIG   0.0000
  39 H           -2.1418     1.5751     0.0312 H            1    LIG   0.0000
  40 H           -0.8712    -0.5255     0.0078 H            1    LIG   0.0000
  41 H            1.2213    -1.6840    -0.0167 H            1    LIG   0.0000
  42 H            3.2798    -0.4681    -0.0318 H            1    LIG   0.0000
  43 H            4.4958     1.6649    -0.0323 H            1    LIG   0.0000
  44 H            4.4756     4.9525    -1.7966 H            1    LIG   0.0000
  45 H           10.5482     4.6196     2.9988 H            1    LIG   0.0000
  46 H           11.2847     4.8362     1.5575 H            1    LIG   0.0000
  47 H           10.7046     6.1225     2.3794 H            1    LIG   0.0000
  48 H            7.3577     2.9879     3.2895 H            1    LIG   0.0000
  49 H            8.9677     2.8085     3.0839 H            1    LIG   0.0000
  50 H            8.3881     4.0929     3.9090 H            1    LIG   0.0000
  51 H            1.1560     3.1004     0.0070 H            1    LIG   0.0000
  52 H           -5.0381     2.8565    -3.2770 H            1    LIG   0.0000
  53 H           -6.6428     2.6328    -3.0734 H            1    LIG   0.0000
  54 H           -6.0973     3.9405    -3.8852 H            1    LIG   0.0000
@<TRIPOS>BOND
   1        1        2 1
   2        2        3 1
   3        3        4 1
   4        4        5 1
   5        5        6 2
   6        6        7 1
   7        7        8 1
   8        8        9 2
   9        9       10 1
  10       10       11 ar
  11       11       12 ar
  12       12       13 ar
  13       13       14 ar
  14       14       15 1
  15       15       16 2
  16       16       17 1
  17       17       18 1
  18       18       19 2
  19       19       20 1
  20       20       21 1
  21       21       22 1
  22       22       23 1
  23       22       24 2
  24       24       25 1
  25       24       26 1
  26       26       20 2
  27       26       27 1
  28       27       17 1
  29       27       28 2
  30       14       29 ar
  31       29       10 ar
  32        7       30 1
  33       30       31 2
  34       30       32 1
  35       32        4 2
  36       32       33 1
  37       33        2 2
  38       33       34 1
  39        1       35 1
  40        1       36 1
  41        1       37 1
  42        6       38 1
  43        9       39 1
  44       11       40 1
  45       12       41 1
  46       13       42 1
  47       15       43 1
  48       18       44 1
  49       23       45 1
  50       23       46 1
  51       23       47 1
  52       25       48 1
  53       25       49 1
  54       25       50 1
  55       29       51 1
  56       34       52 1
  57       34       53 1
  58       34       54 1

@<TRIPOS>MOLECULE

  54   58
SMALL
USER_CHARGES
@<TRIPOS>ATOM
   1 C1          -8.2888     4.9315    -2.1225 C.3          1    LIG   0.0000
   2 C2          -6.9467     4.8074    -1.4171 C.2          1    LIG   0.0000
   3 S3          -6.5195     5.5415     0.0602 S.3          1    LIG   0.0000
   4 C4          -4.9344     4.9411     0.1515 C.2          1    LIG   0.0000
   5 N5          -4.0717     5.2167     1.1738 N.2          1    LIG   0.0000
   6 C6          -2.8749     4.6714     1.1047 C.2          1    LIG   0.0000
   7 N7          -2.5382     3.8696     0.0463 N.pl3        1    LIG   0.0000
   8 N8          -1.2977     3.3358     0.0317 N.2          1    LIG   0.0000
   9 C9          -1.2821     2.0859     0.0254 C.2          1    LIG   0.0000
  10 C10         -0.0175     1.3767     0.0098 C.ar         1    LIG   0.0000
  11 C11         -0.0116    -0.0145     0.0026 C.ar         1    LIG   0.0000
  12 C12          1.2073    -0.6841    -0.0121 C.ar         1    LIG   0.0000
  13 C13          2.4069     0.0197    -0.0206 C.ar         1    LIG   0.0000
  14 C14          2.3775     1.4104    -0.0133 C.ar         1    LIG   0.0000
  15 C15          3.6230     2.1528    -0.0214 C.2          1    LIG   0.0000
  16 N16          3.6057     3.4026    -0.0148 N.2          1    LIG   0.0000
  17 N17          4.8317     3.9690    -0.0236 N.pl3        1    LIG   0.0000
  18 C18          5.6739     3.6826     1.0181 C.2          1    LIG   0.0000
  19 N19          6.8803     4.2088     1.0641 N.2          1    LIG   0.0000
  20 C20          7.2314     5.0362     0.0358 C.2          1    LIG   0.0000
  21 S21          8.7350     5.8148    -0.0841 S.3          1    LIG   0.0000
  22 C22          8.4452     6.6249    -1.5550 C.2          1    LIG   0.0000
  23 C23          9.4200     7.5416    -2.2785 C.3          1    LIG   0.0000
  24 C24          7.1835     6.2882    -1.9392 C.2          1    LIG   0.0000
  25 C25          6.6116     6.8553    -3.2284 C.3          1    LIG   0.0000
  26 C26          6.5070     5.4038    -1.0555 C.2          1    LIG   0.0000
  27 C27          5.2175     4.8046    -1.0413 C.2          1    LIG   0.0000
  28 O28          4.4095     5.0116    -1.9322 O.2          1    LIG   0.0000
  29 C29          1.1700     2.1005     0.0019 C.ar         1    LIG   0.0000
  30 C30         -3.4301     3.6142    -0.9647 C.2          1    LIG   0.0000
  31 O31         -3.0553     2.8886    -1.8716 O.2          1    LIG   0.0000
  32 C32         -4.7374     4.1734    -0.9543 C.2          1    LIG   0.0000
  33 C33         -5.8581     4.0997    -1.8257 C.2          1    LIG   0.0000
  34 C34         -5.9138     3.3153    -3.1266 C.3          1    LIG   0.0000
  35 H           -8.2703     4.4007    -2.9698 H            1    LIG   0.0000
  36 H           -9.0121     4.5829    -1.5264 H            1    LIG   0.0000
  37 H           -8.4661     5.8924    -2.3349 H            1    LIG   0.0000
  38 H           -2.2078     4.8437     1.8294 H            1    LIG   0.0000
  39 H           -2.1418     1.5751     0.0312 H            1    LIG   0.0000
  40 H           -0.8712    -0.5255     0.0078 H            1    LIG   0.0000
  41 H            1.2213    -1.6840    -0.0167 H            1    LIG   0.0000
  42 H            3.2798    -0.4681    -0.0318 H            1    LIG   0.0000
  43 H            4.4958     1.6649    -0.0323 H            1    LIG   0.0000
  44 H            5.3708     3.0702     1.7481 H            1    LIG   0.0000
  45 H            8.9961     7.8836    -3.1172 H            1    LIG   0.0000
  46 H            9.6555     8.3119    -1.6860 H            1    LIG   0.0000
  47 H           10.2492     7.0319    -2.5080 H            1    LIG   0.0000
  48 H            5.6824     6.5103    -3.3610 H            1    LIG   0.0000
  49 H            6.5918     7.8536    -3.1736 H            1    LIG   0.0000
  50 H            7.1843     6.5751    -3.9988 H            1    LIG   0.0000
  51 H            1.1560     3.1004     0.0070 H            1    LIG   0.0000
  52 H           -5.0381     2.8565    -3.2770 H            1    LIG   0.0000
  53 H           -6.6428     2.6328    -3.0734 H            1    LIG   0.0000
  54 H           -6.0973     3.9405    -3.8852 H            1    LIG   0.0000
@<TRIPOS>BOND
   1        1        2 1
   2        2        3 1
   3        3        4 1
   4        4        5 1
   5        5        6 2
   6        6        7 1
   7        7        8 1
   8        8        9 2
   9        9       10 1
  10       10       11 ar
  11       11       12 ar
  12       12       13 ar
  13       13       14 ar
  14       14       15 1
  15       15       16 2
  16       16       17 1
  17       17       18 1
  18       18       19 2
  19       19       20 1
  20       20       21 1
  21       21       22 1
  22       22       23 1
  23       22       24 2
  24       24       25 1
  25       24       26 1
  26       26       20 2
  27       26       27 1
  28       27       17 1
  29       27       28 2
  30       14       29 ar
  31       29       10 ar
  32        7       30 1
  33       30       31 2
  34       30       32 1
  35       32        4 2
  36       32       33 1
  37       33        2 2
  38       33       34 1
  39        1       35 1
  40        1       36 1
  41        1       37 1
  42        6       38 1
  43        9       39 1
  44       11       40 1
  45       12       41 1
  46       13       42 1
  47       15       43 1
  48       18       44 1
  49       23       45 1
  50       23       46 1
  51       23       47 1
  52       25       48 1
  53       25       49 1
  54       25       50 1
  55       29       51 1
  56       34       52 1
  57       34       53 1
  58       34       54 1

@<TRIPOS>MOLECULE

  54   58
SMALL
USER_CHARGES
@<TRIPOS>ATOM
   1 C1          -8.2888     4.9315    -2.1225 C.3          1    LIG   0.0000
   2 C2          -6.9467     4.8074    -1.4171 C.2          1    LIG   0.0000
   3 S3          -6.5195     5.5415     0.0602 S.3          1    LIG   0.0000
   4 C4          -4.9344     4.9411     0.1515 C.2          1    LIG   0.0000
   5 N5          -4.0717     5.2167     1.1738 N.2          1    LIG   0.0000
   6 C6          -2.8749     4.6714     1.1047 C.2          1    LIG   0.0000
   7 N7          -2.5382     3.8696     0.0463 N.pl3        1    LIG   0.0000
   8 N8          -1.2977     3.3358     0.0317 N.2          1    LIG   0.0000
   9 C9          -1.2821     2.0859     0.0254 C.2          1    LIG   0.0000
  10 C10         -0.0175     1.3767     0.0098 C.ar         1    LIG   0.0000
  11 C11         -0.0116    -0.0145     0.0026 C.ar         1    LIG   0.0000
  12 C12          1.2073    -0.6841    -0.0121 C.ar         1    LIG   0.0000
  13 C13          2.4069     0.0197    -0.0206 C.ar         1    LIG   0.0000
  14 C14          2.3775     1.4104    -0.0133 C.ar         1    LIG   0.0000
  15 C15          3.6230     2.1528    -0.0214 C.2          1    LIG   0.0000
  16 N16          3.6057     3.4026    -0.0148 N.2          1    LIG   0.0000
  17 N17          4.8317     3.9690    -0.0236 N.pl3        1    LIG   0.0000
  18 C18          5.8455     3.2854    -0.6410 C.2          1    LIG   0.0000
  19 N19          7.0625     3.7874    -0.6780 N.2          1    LIG   0.0000
  20 C20          7.2470     5.0006    -0.0785 C.2          1    LIG   0.0000
  21 S21          8.7381     5.8093    -0.0134 S.3          1    LIG   0.0000
  22 C22          8.2048     7.1827     0.8430 C.2          1    LIG   0.0000
  23 C23          9.0640     8.3674     1.2580 C.3          1    LIG   0.0000
  24 C24          6.8758     7.0012     1.0749 C.2          1    LIG   0.0000
  25 C25          6.0911     8.0608     1.8314 C.3          1    LIG   0.0000
  26 C26          6.3412     5.7879     0.5623 C.2          1    LIG   0.0000
  27 C27          5.0525     5.1870     0.5685 C.2          1    LIG   0.0000
  28 O28          4.0985     5.7323     1.0995 O.2          1    LIG   0.0000
  29 C29          1.1700     2.1005     0.0019 C.ar         1    LIG   0.0000
  30 C30         -3.4301     3.6142    -0.9647 C.2          1    LIG   0.0000
  31 O31         -3.0553     2.8886    -1.8716 O.2          1    LIG   0.0000
  32 C32         -4.7374     4.1734    -0.9543 C.2          1    LIG   0.0000
  33 C33         -5.8581     4.0997    -1.8257 C.2          1    LIG   0.0000
  34 C34         -5.9138     3.3153    -3.1266 C.3          1    LIG   0.0000
  35 H           -8.2703     4.4007    -2.9698 H            1    LIG   0.0000
  36 H           -9.0121     4.5829    -1.5264 H            1    LIG   0.0000
  37 H           -8.4661     5.8924    -2.3349 H            1    LIG   0.0000
  38 H           -2.2078     4.8437     1.8294 H            1    LIG   0.0000
  39 H           -2.1418     1.5751     0.0312 H            1    LIG   0.0000
  40 H           -0.8712    -0.5255     0.0078 H            1    LIG   0.0000
  41 H            1.2213    -1.6840    -0.0167 H            1    LIG   0.0000
  42 H            3.2798    -0.4681    -0.0318 H            1    LIG   0.0000
  43 H            4.4958     1.6649    -0.0323 H            1    LIG   0.0000
  44 H            5.6604     2.3995    -1.0663 H            1    LIG   0.0000
  45 H            8.5003     9.0326     1.7477 H            1    LIG   0.0000
  46 H            9.8013     8.0516     1.8550 H            1    LIG   0.0000
  47 H            9.4550     8.7970     0.4440 H            1    LIG   0.0000
  48 H            5.1369     7.7731     1.9143 H            1    LIG   0.0000
  49 H            6.4841     8.1790     2.7433 H            1    LIG   0.0000
  50 H            6.1360     8.9273     1.3342 H            1    LIG   0.0000
  51 H            1.1560     3.1004     0.0070 H            1    LIG   0.0000
  52 H           -5.0381     2.8565    -3.2770 H            1    LIG   0.0000
  53 H           -6.6428     2.6328    -3.0734 H            1    LIG   0.0000
  54 H           -6.0973     3.9405    -3.8852 H            1    LIG   0.0000
@<TRIPOS>BOND
   1        1        2 1
   2        2        3 1
   3        3        4 1
   4        4        5 1
   5        5        6 2
   6        6        7 1
   7        7        8 1
   8        8        9 2
   9        9       10 1
  10       10       11 ar
  11       11       12 ar
  12       12       13 ar
  13       13       14 ar
  14       14       15 1
  15       15       16 2
  16       16       17 1
  17       17       18 1
  18       18       19 2
  19       19       20 1
  20       20       21 1
  21       21       22 1
  22       22       23 1
  23       22       24 2
  24       24       25 1
  25       24       26 1
  26       26       20 2
  27       26       27 1
  28       27       17 1
  29       27       28 2
  30       14       29 ar
  31       29       10 ar
  32        7       30 1
  33       30       31 2
  34       30       32 1
  35       32        4 2
  36       32       33 1
  37       33        2 2
  38       33       34 1
  39        1       35 1
  40        1       36 1
  41        1       37 1
  42        6       38 1
  43        9       39 1
  44       11       40 1
  45       12       41 1
  46       13       42 1
  47       15       43 1
  48       18       44 1
  49       23       45 1
  50       23       46 1
  51       23       47 1
  52       25       48 1
  53       25       49 1
  54       25       50 1
  55       29       51 1
  56       34       52 1
  57       34       53 1
  58       34       54 1

@<TRIPOS>MOLECULE

  54   58
SMALL
USER_CHARGES
@<TRIPOS>ATOM
   1 C1          -7.2185     7.2967     2.3375 C.3          1    LIG   0.0000
   2 C2          -6.2201     6.4135     1.6046 C.2          1    LIG   0.0000
   3 S3          -6.4887     5.6113     0.1254 S.3          1    LIG   0.0000
   4 C4          -4.9652     4.8738    -0.0023 C.2          1    LIG   0.0000
   5 N5          -4.5926     4.0666    -1.0391 N.2          1    LIG   0.0000
   6 C6          -3.3728     3.5719    -0.9984 C.2          1    LIG   0.0000
   7 N7          -2.5382     3.8696     0.0463 N.pl3        1    LIG   0.0000
   8 N8          -1.2977     3.3358     0.0317 N.2          1    LIG   0.0000
   9 C9          -1.2821     2.0859     0.0254 C.2          1    LIG   0.0000
  10 C10         -0.0175     1.3767     0.0098 C.ar         1    LIG   0.0000
  11 C11         -0.0116    -0.0145     0.0026 C.ar         1    LIG   0.0000
  12 C12          1.2073    -0.6841    -0.0121 C.ar         1    LIG   0.0000
  13 C13          2.4069     0.0197    -0.0206 C.ar         1    LIG   0.0000
  14 C14          2.3775     1.4104    -0.0133 C.ar         1    LIG   0.0000
  15 C15          3.6230     2.1528    -0.0214 C.2          1    LIG   0.0000
  16 N16          3.6057     3.4026    -0.0148 N.2          1    LIG   0.0000
  17 N17          4.8317     3.9690    -0.0236 N.pl3        1    LIG   0.0000
  18 C18          5.6739     3.6826     1.0181 C.2          1    LIG   0.0000
  19 N19          6.8803     4.2088     1.0641 N.2          1    LIG   0.0000
  20 C20          7.2314     5.0362     0.0358 C.2          1    LIG   0.0000
  21 S21          8.7350     5.8148    -0.0841 S.3          1    LIG   0.0000
  22 C22          8.4452     6.6249    -1.5550 C.2          1    LIG   0.0000
  23 C23          9.4200     7.5416    -2.2785 C.3          1    LIG   0.0000
  24 C24          7.1835     6.2882    -1.9392 C.2          1    LIG   0.0000
  25 C25          6.6116     6.8553    -3.2284 C.3          1    LIG   0.0000
  26 C26          6.5070     5.4038    -1.0555 C.2          1    LIG   0.0000
  27 C27          5.2175     4.8046    -1.0413 C.2          1    LIG   0.0000
  28 O28          4.4095     5.0116    -1.9322 O.2          1    LIG   0.0000
  29 C29          1.1700     2.1005     0.0019 C.ar         1    LIG   0.0000
  30 C30         -2.9457     4.6842     1.0725 C.2          1    LIG   0.0000
  31 O31         -2.1433     4.9032     1.9655 O.2          1    LIG   0.0000
  32 C32         -4.2505     5.2491     1.0928 C.2          1    LIG   0.0000
  33 C33         -4.9499     6.1062     1.9855 C.2          1    LIG   0.0000
  34 C34         -4.3928     6.6748     3.2805 C.3          1    LIG   0.0000
  35 H           -6.8036     7.6411     3.1797 H            1    LIG   0.0000
  36 H           -7.4743     8.0667     1.7529 H            1    LIG   0.0000
  37 H           -8.0340     6.7630     2.5616 H            1    LIG   0.0000
  38 H           -3.0538     2.9752    -1.7347 H            1    LIG   0.0000
  39 H           -2.1418     1.5751     0.0312 H            1    LIG   0.0000
  40 H           -0.8712    -0.5255     0.0078 H            1    LIG   0.0000
  41 H            1.2213    -1.6840    -0.0167 H            1    LIG   0.0000
  42 H            3.2798    -0.4681    -0.0318 H            1    LIG   0.0000
  43 H            4.4958     1.6649    -0.0323 H            1    LIG   0.0000
  44 H            5.3708     3.0702     1.7481 H            1    LIG   0.0000
  45 H            8.9961     7.8836    -3.1172 H            1    LIG   0.0000
  46 H            9.6555     8.3119    -1.6860 H            1    LIG   0.0000
  47 H           10.2492     7.0319    -2.5080 H            1    LIG   0.0000
  48 H            5.6824     6.5103    -3.3610 H            1    LIG   0.0000
  49 H            6.5918     7.8536    -3.1736 H            1    LIG   0.0000
  50 H            7.1843     6.5751    -3.9988 H            1    LIG   0.0000
  51 H            1.1560     3.1004     0.0070 H            1    LIG   0.0000
  52 H           -3.4549     6.3530     3.4096 H            1    LIG   0.0000
  53 H           -4.3993     7.6738     3.2360 H            1    LIG   0.0000
  54 H           -4.9578     6.3717     4.0479 H            1    LIG   0.0000
@<TRIPOS>BOND
   1        1        2 1
   2        2        3 1
   3        3        4 1
   4        4        5 1
   5        5        6 2
   6        6        7 1
   7        7        8 1
   8        8        9 2
   9        9       10 1
  10       10       11 ar
  11       11       12 ar
  12       12       13 ar
  13       13       14 ar
  14       14       15 1
  15       15       16 2
  16       16       17 1
  17       17       18 1
  18       18       19 2
  19       19       20 1
  20       20       21 1
  21       21       22 1
  22       22       23 1
  23       22       24 2
  24       24       25 1
  25       24       26 1
  26       26       20 2
  27       26       27 1
  28       27       17 1
  29       27       28 2
  30       14       29 ar
  31       29       10 ar
  32        7       30 1
  33       30       31 2
  34       30       32 1
  35       32        4 2
  36       32       33 1
  37       33        2 2
  38       33       34 1
  39        1       35 1
  40        1       36 1
  41        1       37 1
  42        6       38 1
  43        9       39 1
  44       11       40 1
  45       12       41 1
  46       13       42 1
  47       15       43 1
  48       18       44 1
  49       23       45 1
  50       23       46 1
  51       23       47 1
  52       25       48 1
  53       25       49 1
  54       25       50 1
  55       29       51 1
  56       34       52 1
  57       34       53 1
  58       34       54 1

@<TRIPOS>MOLECULE

  54   58
SMALL
USER_CHARGES
@<TRIPOS>ATOM
   1 C1          -7.2185     7.2967     2.3375 C.3          1    LIG   0.0000
   2 C2          -6.2201     6.4135     1.6046 C.2          1    LIG   0.0000
   3 S3          -6.4887     5.6113     0.1254 S.3          1    LIG   0.0000
   4 C4          -4.9652     4.8738    -0.0023 C.2          1    LIG   0.0000
   5 N5          -4.5926     4.0666    -1.0391 N.2          1    LIG   0.0000
   6 C6          -3.3728     3.5719    -0.9984 C.2          1    LIG   0.0000
   7 N7          -2.5382     3.8696     0.0463 N.pl3        1    LIG   0.0000
   8 N8          -1.2977     3.3358     0.0317 N.2          1    LIG   0.0000
   9 C9          -1.2821     2.0859     0.0254 C.2          1    LIG   0.0000
  10 C10         -0.0175     1.3767     0.0098 C.ar         1    LIG   0.0000
  11 C11         -0.0116    -0.0145     0.0026 C.ar         1    LIG   0.0000
  12 C12          1.2073    -0.6841    -0.0121 C.ar         1    LIG   0.0000
  13 C13          2.4069     0.0197    -0.0206 C.ar         1    LIG   0.0000
  14 C14          2.3775     1.4104    -0.0133 C.ar         1    LIG   0.0000
  15 C15          3.6230     2.1528    -0.0214 C.2          1    LIG   0.0000
  16 N16          3.6057     3.4026    -0.0148 N.2          1    LIG   0.0000
  17 N17          4.8317     3.9690    -0.0236 N.pl3        1    LIG   0.0000
  18 C18          5.8455     3.2854    -0.6410 C.2          1    LIG   0.0000
  19 N19          7.0625     3.7874    -0.6780 N.2          1    LIG   0.0000
  20 C20          7.2470     5.0006    -0.0785 C.2          1    LIG   0.0000
  21 S21          8.7381     5.8093    -0.0134 S.3          1    LIG   0.0000
  22 C22          8.2048     7.1827     0.8430 C.2          1    LIG   0.0000
  23 C23          9.0640     8.3674     1.2580 C.3          1    LIG   0.0000
  24 C24          6.8758     7.0012     1.0749 C.2          1    LIG   0.0000
  25 C25          6.0911     8.0608     1.8314 C.3          1    LIG   0.0000
  26 C26          6.3412     5.7879     0.5623 C.2          1    LIG   0.0000
  27 C27          5.0525     5.1870     0.5685 C.2          1    LIG   0.0000
  28 O28          4.0985     5.7323     1.0995 O.2          1    LIG   0.0000
  29 C29          1.1700     2.1005     0.0019 C.ar         1    LIG   0.0000
  30 C30         -2.9457     4.6842     1.0725 C.2          1    LIG   0.0000
  31 O31         -2.1433     4.9032     1.9655 O.2          1    LIG   0.0000
  32 C32         -4.2505     5.2491     1.0928 C.2          1    LIG   0.0000
  33 C33         -4.9499     6.1062     1.9855 C.2          1    LIG   0.0000
  34 C34         -4.3928     6.6748     3.2805 C.3          1    LIG   0.0000
  35 H           -6.8036     7.6411     3.1797 H            1    LIG   0.0000
  36 H           -7.4743     8.0667     1.7529 H            1    LIG   0.0000
  37 H           -8.0340     6.7630     2.5616 H            1    LIG   0.0000
  38 H           -3.0538     2.9752    -1.7347 H            1    LIG   0.0000
  39 H           -2.1418     1.5751     0.0312 H            1    LIG   0.0000
  40 H           -0.8712    -0.5255     0.0078 H            1    LIG   0.0000
  41 H            1.2213    -1.6840    -0.0167 H            1    LIG   0.0000
  42 H            3.2798    -0.4681    -0.0318 H            1    LIG   0.0000
  43 H            4.4958     1.6649    -0.0323 H            1    LIG   0.0000
  44 H            5.6604     2.3995    -1.0663 H            1    LIG   0.0000
  45 H            8.5003     9.0326     1.7477 H            1    LIG   0.0000
  46 H            9.8013     8.0516     1.8550 H            1    LIG   0.0000
  47 H            9.4550     8.7970     0.4440 H            1    LIG   0.0000
  48 H            5.1369     7.7731     1.9143 H            1    LIG   0.0000
  49 H            6.4841     8.1790     2.7433 H            1    LIG   0.0000
  50 H            6.1360     8.9273     1.3342 H            1    LIG   0.0000
  51 H            1.1560     3.1004     0.0070 H            1    LIG   0.0000
  52 H           -3.4549     6.3530     3.4096 H            1    LIG   0.0000
  53 H           -4.3993     7.6738     3.2360 H            1    LIG   0.0000
  54 H           -4.9578     6.3717     4.0479 H            1    LIG   0.0000
@<TRIPOS>BOND
   1        1        2 1
   2        2        3 1
   3        3        4 1
   4        4        5 1
   5        5        6 2
   6        6        7 1
   7        7        8 1
   8        8        9 2
   9        9       10 1
  10       10       11 ar
  11       11       12 ar
  12       12       13 ar
  13       13       14 ar
  14       14       15 1
  15       15       16 2
  16       16       17 1
  17       17       18 1
  18       18       19 2
  19       19       20 1
  20       20       21 1
  21       21       22 1
  22       22       23 1
  23       22       24 2
  24       24       25 1
  25       24       26 1
  26       26       20 2
  27       26       27 1
  28       27       17 1
  29       27       28 2
  30       14       29 ar
  31       29       10 ar
  32        7       30 1
  33       30       31 2
  34       30       32 1
  35       32        4 2
  36       32       33 1
  37       33        2 2
  38       33       34 1
  39        1       35 1
  40        1       36 1
  41        1       37 1
  42        6       38 1
  43        9       39 1
  44       11       40 1
  45       12       41 1
  46       13       42 1
  47       15       43 1
  48       18       44 1
  49       23       45 1
  50       23       46 1
  51       23       47 1
  52       25       48 1
  53       25       49 1
  54       25       50 1
  55       29       51 1
  56       34       52 1
  57       34       53 1
  58       34       54 1

@<TRIPOS>MOLECULE

  54   58
SMALL
USER_CHARGES
@<TRIPOS>ATOM
   1 C1          -7.2185     7.2967     2.3375 C.3          1    LIG   0.0000
   2 C2          -6.2201     6.4135     1.6046 C.2          1    LIG   0.0000
   3 S3          -6.4887     5.6113     0.1254 S.3          1    LIG   0.0000
   4 C4          -4.9652     4.8738    -0.0023 C.2          1    LIG   0.0000
   5 N5          -4.5926     4.0666    -1.0391 N.2          1    LIG   0.0000
   6 C6          -3.3728     3.5719    -0.9984 C.2          1    LIG   0.0000
   7 N7          -2.5382     3.8696     0.0463 N.pl3        1    LIG   0.0000
   8 N8          -1.2977     3.3358     0.0317 N.2          1    LIG   0.0000
   9 C9          -1.2821     2.0859     0.0254 C.2          1    LIG   0.0000
  10 C10         -0.0175     1.3767     0.0098 C.ar         1    LIG   0.0000
  11 C11         -0.0116    -0.0145     0.0026 C.ar         1    LIG   0.0000
  12 C12          1.2073    -0.6841    -0.0121 C.ar         1    LIG   0.0000
  13 C13          2.4069     0.0197    -0.0206 C.ar         1    LIG   0.0000
  14 C14          2.3775     1.4104    -0.0133 C.ar         1    LIG   0.0000
  15 C15          3.6230     2.1528    -0.0214 C.2          1    LIG   0.0000
  16 N16          3.6057     3.4026    -0.0148 N.2          1    LIG   0.0000
  17 N17          4.8317     3.9690    -0.0236 N.pl3        1    LIG   0.0000
  18 C18          5.1655     4.7832     1.0262 C.2          1    LIG   0.0000
  19 N19          6.3461     5.3652     1.0695 N.2          1    LIG   0.0000
  20 C20          7.1957     5.1135     0.0302 C.2          1    LIG   0.0000
  21 S21          8.7547     5.7719    -0.1013 S.3          1    LIG   0.0000
  22 C22          9.1786     5.0371    -1.5792 C.2          1    LIG   0.0000
  23 C23         10.5019     5.1993    -2.3117 C.3          1    LIG   0.0000
  24 C24          8.1064     4.2902    -1.9606 C.2          1    LIG   0.0000
  25 C25          8.1616     3.4998    -3.2579 C.3          1    LIG   0.0000
  26 C26          7.0025     4.3312    -1.0660 C.2          1    LIG   0.0000
  27 C27          5.7106     3.7373    -1.0515 C.2          1    LIG   0.0000
  28 O28          5.3381     3.0015    -1.9511 O.2          1    LIG   0.0000
  29 C29          1.1700     2.1005     0.0019 C.ar         1    LIG   0.0000
  30 C30         -2.9457     4.6842     1.0725 C.2          1    LIG   0.0000
  31 O31         -2.1433     4.9032     1.9655 O.2          1    LIG   0.0000
  32 C32         -4.2505     5.2491     1.0928 C.2          1    LIG   0.0000
  33 C33         -4.9499     6.1062     1.9855 C.2          1    LIG   0.0000
  34 C34         -4.3928     6.6748     3.2805 C.3          1    LIG   0.0000
  35 H           -6.8036     7.6411     3.1797 H            1    LIG   0.0000
  36 H           -7.4743     8.0667     1.7529 H            1    LIG   0.0000
  37 H           -8.0340     6.7630     2.5616 H            1    LIG   0.0000
  38 H           -3.0538     2.9752    -1.7347 H            1    LIG   0.0000
  39 H           -2.1418     1.5751     0.0312 H            1    LIG   0.0000
  40 H           -0.8712    -0.5255     0.0078 H            1    LIG   0.0000
  41 H            1.2213    -1.6840    -0.0167 H            1    LIG   0.0000
  42 H            3.2798    -0.4681    -0.0318 H            1    LIG   0.0000
  43 H            4.4958     1.6649    -0.0323 H            1    LIG   0.0000
  44 H            4.5086     4.9367     1.7644 H            1    LIG   0.0000
  45 H           10.4856     4.6591    -3.1531 H            1    LIG   0.0000
  46 H           10.6420     6.1634    -2.5373 H            1    LIG   0.0000
  47 H           11.2480     4.8821    -1.7263 H            1    LIG   0.0000
  48 H            7.2990     3.0108    -3.3872 H            1    LIG   0.0000
  49 H            8.3078     4.1259    -4.0238 H            1    LIG   0.0000
  50 H            8.9143     2.8427    -3.2162 H            1    LIG   0.0000
  51 H            1.1560     3.1004     0.0070 H            1    LIG   0.0000
  52 H           -3.4549     6.3530     3.4096 H            1    LIG   0.0000
  53 H           -4.3993     7.6738     3.2360 H            1    LIG   0.0000
  54 H           -4.9578     6.3717     4.0479 H            1    LIG   0.0000
@<TRIPOS>BOND
   1        1        2 1
   2        2        3 1
   3        3        4 1
   4        4        5 1
   5        5        6 2
   6        6        7 1
   7        7        8 1
   8        8        9 2
   9        9       10 1
  10       10       11 ar
  11       11       12 ar
  12       12       13 ar
  13       13       14 ar
  14       14       15 1
  15       15       16 2
  16       16       17 1
  17       17       18 1
  18       18       19 2
  19       19       20 1
  20       20       21 1
  21       21       22 1
  22       22       23 1
  23       22       24 2
  24       24       25 1
  25       24       26 1
  26       26       20 2
  27       26       27 1
  28       27       17 1
  29       27       28 2
  30       14       29 ar
  31       29       10 ar
  32        7       30 1
  33       30       31 2
  34       30       32 1
  35       32        4 2
  36       32       33 1
  37       33        2 2
  38       33       34 1
  39        1       35 1
  40        1       36 1
  41        1       37 1
  42        6       38 1
  43        9       39 1
  44       11       40 1
  45       12       41 1
  46       13       42 1
  47       15       43 1
  48       18       44 1
  49       23       45 1
  50       23       46 1
  51       23       47 1
  52       25       48 1
  53       25       49 1
  54       25       50 1
  55       29       51 1
  56       34       52 1
  57       34       53 1
  58       34       54 1

@<TRIPOS>MOLECULE

  54   58
SMALL
USER_CHARGES
@<TRIPOS>ATOM
   1 C1          -6.8850     8.1681    -1.1903 C.3          1    LIG   0.0000
   2 C2          -5.9948     7.0021    -0.7874 C.2          1    LIG   0.0000
   3 S3          -6.4916     5.6065     0.0547 S.3          1    LIG   0.0000
   4 C4          -4.9798     4.8367     0.1116 C.2          1    LIG   0.0000
   5 N5          -4.7633     3.6226     0.6985 N.2          1    LIG   0.0000
   6 C6          -3.5336     3.1532     0.6565 C.2          1    LIG   0.0000
   7 N7          -2.5382     3.8696     0.0463 N.pl3        1    LIG   0.0000
   8 N8          -1.2977     3.3358     0.0317 N.2          1    LIG   0.0000
   9 C9          -1.2821     2.0859     0.0254 C.2          1    LIG   0.0000
  10 C10         -0.0175     1.3767     0.0098 C.ar         1    LIG   0.0000
  11 C11         -0.0116    -0.0145     0.0026 C.ar         1    LIG   0.0000
  12 C12          1.2073    -0.6841    -0.0121 C.ar         1    LIG   0.0000
  13 C13          2.4069     0.0197    -0.0206 C.ar         1    LIG   0.0000
  14 C14          2.3775     1.4104    -0.0133 C.ar         1    LIG   0.0000
  15 C15          3.6230     2.1528    -0.0214 C.2          1    LIG   0.0000
  16 N16          3.6057     3.4026    -0.0148 N.2          1    LIG   0.0000
  17 N17          4.8317     3.9690    -0.0236 N.pl3        1    LIG   0.0000
  18 C18          5.8455     3.2854    -0.6410 C.2          1    LIG   0.0000
  19 N19          7.0625     3.7874    -0.6780 N.2          1    LIG   0.0000
  20 C20          7.2470     5.0006    -0.0785 C.2          1    LIG   0.0000
  21 S21          8.7381     5.8093    -0.0134 S.3          1    LIG   0.0000
  22 C22          8.2048     7.1827     0.8430 C.2          1    LIG   0.0000
  23 C23          9.0640     8.3674     1.2580 C.3          1    LIG   0.0000
  24 C24          6.8758     7.0012     1.0749 C.2          1    LIG   0.0000
  25 C25          6.0911     8.0608     1.8314 C.3          1    LIG   0.0000
  26 C26          6.3412     5.7879     0.5623 C.2          1    LIG   0.0000
  27 C27          5.0525     5.1870     0.5685 C.2          1    LIG   0.0000
  28 O28          4.0985     5.7323     1.0995 O.2          1    LIG   0.0000
  29 C29          1.1700     2.1005     0.0019 C.ar         1    LIG   0.0000
  30 C30         -2.7910     5.0874    -0.5332 C.2          1    LIG   0.0000
  31 O31         -1.8518     5.6630    -1.0585 O.2          1    LIG   0.0000
  32 C32         -4.0951     5.6541    -0.5210 C.2          1    LIG   0.0000
  33 C33         -4.6616     6.8581    -1.0211 C.2          1    LIG   0.0000
  34 C34         -3.9051     7.9457    -1.7665 C.3          1    LIG   0.0000
  35 H           -6.3391     8.8529    -1.6731 H            1    LIG   0.0000
  36 H           -7.6139     7.8391    -1.7906 H            1    LIG   0.0000
  37 H           -7.2870     8.5788    -0.3719 H            1    LIG   0.0000
  38 H           -3.3251     2.2681     1.0727 H            1    LIG   0.0000
  39 H           -2.1418     1.5751     0.0312 H            1    LIG   0.0000
  40 H           -0.8712    -0.5255     0.0078 H            1    LIG   0.0000
  41 H            1.2213    -1.6840    -0.0167 H            1    LIG   0.0000
  42 H            3.2798    -0.4681    -0.0318 H            1    LIG   0.0000
  43 H            4.4958     1.6649    -0.0323 H            1    LIG   0.0000
  44 H            5.6604     2.3995    -1.0663 H            1    LIG   0.0000
  45 H            8.5003     9.0326     1.7477 H            1    LIG   0.0000
  46 H            9.8013     8.0516     1.8550 H            1    LIG   0.0000
  47 H            9.4550     8.7970     0.4440 H            1    LIG   0.0000
  48 H            5.1369     7.7731     1.9143 H            1    LIG   0.0000
  49 H            6.4841     8.1790     2.7433 H            1    LIG   0.0000
  50 H            6.1360     8.9273     1.3342 H            1    LIG   0.0000
  51 H            1.1560     3.1004     0.0070 H            1    LIG   0.0000
  52 H           -2.9438     7.6842    -1.8523 H            1    LIG   0.0000
  53 H           -4.3013     8.0630    -2.6772 H            1    LIG   0.0000
  54 H           -3.9728     8.8055    -1.2604 H            1    LIG   0.0000
@<TRIPOS>BOND
   1        1        2 1
   2        2        3 1
   3        3        4 1
   4        4        5 1
   5        5        6 2
   6        6        7 1
   7        7        8 1
   8        8        9 2
   9        9       10 1
  10       10       11 ar
  11       11       12 ar
  12       12       13 ar
  13       13       14 ar
  14       14       15 1
  15       15       16 2
  16       16       17 1
  17       17       18 1
  18       18       19 2
  19       19       20 1
  20       20       21 1
  21       21       22 1
  22       22       23 1
  23       22       24 2
  24       24       25 1
  25       24       26 1
  26       26       20 2
  27       26       27 1
  28       27       17 1
  29       27       28 2
  30       14       29 ar
  31       29       10 ar
  32        7       30 1
  33       30       31 2
  34       30       32 1
  35       32        4 2
  36       32       33 1
  37       33        2 2
  38       33       34 1
  39        1       35 1
  40        1       36 1
  41        1       37 1
  42        6       38 1
  43        9       39 1
  44       11       40 1
  45       12       41 1
  46       13       42 1
  47       15       43 1
  48       18       44 1
  49       23       45 1
  50       23       46 1
  51       23       47 1
  52       25       48 1
  53       25       49 1
  54       25       50 1
  55       29       51 1
  56       34       52 1
  57       34       53 1
  58       34       54 1

@<TRIPOS>MOLECULE

  54   58
SMALL
USER_CHARGES
@<TRIPOS>ATOM
   1 C1          -6.8850     8.1681    -1.1903 C.3          1    LIG   0.0000
   2 C2          -5.9948     7.0021    -0.7874 C.2          1    LIG   0.0000
   3 S3          -6.4916     5.6065     0.0547 S.3          1    LIG   0.0000
   4 C4          -4.9798     4.8367     0.1116 C.2          1    LIG   0.0000
   5 N5          -4.7633     3.6226     0.6985 N.2          1    LIG   0.0000
   6 C6          -3.5336     3.1532     0.6565 C.2          1    LIG   0.0000
   7 N7          -2.5382     3.8696     0.0463 N.pl3        1    LIG   0.0000
   8 N8          -1.2977     3.3358     0.0317 N.2          1    LIG   0.0000
   9 C9          -1.2821     2.0859     0.0254 C.2          1    LIG   0.0000
  10 C10         -0.0175     1.3767     0.0098 C.ar         1    LIG   0.0000
  11 C11         -0.0116    -0.0145     0.0026 C.ar         1    LIG   0.0000
  12 C12          1.2073    -0.6841    -0.0121 C.ar         1    LIG   0.0000
  13 C13          2.4069     0.0197    -0.0206 C.ar         1    LIG   0.0000
  14 C14          2.3775     1.4104    -0.0133 C.ar         1    LIG   0.0000
  15 C15          3.6230     2.1528    -0.0214 C.2          1    LIG   0.0000
  16 N16          3.6057     3.4026    -0.0148 N.2          1    LIG   0.0000
  17 N17          4.8317     3.9690    -0.0236 N.pl3        1    LIG   0.0000
  18 C18          5.1655     4.7832     1.0262 C.2          1    LIG   0.0000
  19 N19          6.3461     5.3652     1.0695 N.2          1    LIG   0.0000
  20 C20          7.1957     5.1135     0.0302 C.2          1    LIG   0.0000
  21 S21          8.7547     5.7719    -0.1013 S.3          1    LIG   0.0000
  22 C22          9.1786     5.0371    -1.5792 C.2          1    LIG   0.0000
  23 C23         10.5019     5.1993    -2.3117 C.3          1    LIG   0.0000
  24 C24          8.1064     4.2902    -1.9606 C.2          1    LIG   0.0000
  25 C25          8.1616     3.4998    -3.2579 C.3          1    LIG   0.0000
  26 C26          7.0025     4.3312    -1.0660 C.2          1    LIG   0.0000
  27 C27          5.7106     3.7373    -1.0515 C.2          1    LIG   0.0000
  28 O28          5.3381     3.0015    -1.9511 O.2          1    LIG   0.0000
  29 C29          1.1700     2.1005     0.0019 C.ar         1    LIG   0.0000
  30 C30         -2.7910     5.0874    -0.5332 C.2          1    LIG   0.0000
  31 O31         -1.8518     5.6630    -1.0585 O.2          1    LIG   0.0000
  32 C32         -4.0951     5.6541    -0.5210 C.2          1    LIG   0.0000
  33 C33         -4.6616     6.8581    -1.0211 C.2          1    LIG   0.0000
  34 C34         -3.9051     7.9457    -1.7665 C.3          1    LIG   0.0000
  35 H           -6.3391     8.8529    -1.6731 H            1    LIG   0.0000
  36 H           -7.6139     7.8391    -1.7906 H            1    LIG   0.0000
  37 H           -7.2870     8.5788    -0.3719 H            1    LIG   0.0000
  38 H           -3.3251     2.2681     1.0727 H            1    LIG   0.0000
  39 H           -2.1418     1.5751     0.0312 H            1    LIG   0.0000
  40 H           -0.8712    -0.5255     0.0078 H            1    LIG   0.0000
  41 H            1.2213    -1.6840    -0.0167 H            1    LIG   0.0000
  42 H            3.2798    -0.4681    -0.0318 H            1    LIG   0.0000
  43 H            4.4958     1.6649    -0.0323 H            1    LIG   0.0000
  44 H            4.5086     4.9367     1.7644 H            1    LIG   0.0000
  45 H           10.4856     4.6591    -3.1531 H            1    LIG   0.0000
  46 H           10.6420     6.1634    -2.5373 H            1    LIG   0.0000
  47 H           11.2480     4.8821    -1.7263 H            1    LIG   0.0000
  48 H            7.2990     3.0108    -3.3872 H            1    LIG   0.0000
  49 H            8.3078     4.1259    -4.0238 H            1    LIG   0.0000
  50 H            8.9143     2.8427    -3.2162 H            1    LIG   0.0000
  51 H            1.1560     3.1004     0.0070 H            1    LIG   0.0000
  52 H           -2.9438     7.6842    -1.8523 H            1    LIG   0.0000
  53 H           -4.3013     8.0630    -2.6772 H            1    LIG   0.0000
  54 H           -3.9728     8.8055    -1.2604 H            1    LIG   0.0000
@<TRIPOS>BOND
   1        1        2 1
   2        2        3 1
   3        3        4 1
   4        4        5 1
   5        5        6 2
   6        6        7 1
   7        7        8 1
   8        8        9 2
   9        9       10 1
  10       10       11 ar
  11       11       12 ar
  12       12       13 ar
  13       13       14 ar
  14       14       15 1
  15       15       16 2
  16       16       17 1
  17       17       18 1
  18       18       19 2
  19       19       20 1
  20       20       21 1
  21       21       22 1
  22       22       23 1
  23       22       24 2
  24       24       25 1
  25       24       26 1
  26       26       20 2
  27       26       27 1
  28       27       17 1
  29       27       28 2
  30       14       29 ar
  31       29       10 ar
  32        7       30 1
  33       30       31 2
  34       30       32 1
  35       32        4 2
  36       32       33 1
  37       33        2 2
  38       33       34 1
  39        1       35 1
  40        1       36 1
  41        1       37 1
  42        6       38 1
  43        9       39 1
  44       11       40 1
  45       12       41 1
  46       13       42 1
  47       15       43 1
  48       18       44 1
  49       23       45 1
  50       23       46 1
  51       23       47 1
  52       25       48 1
  53       25       49 1
  54       25       50 1
  55       29       51 1
  56       34       52 1
  57       34       53 1
  58       34       54 1

@<TRIPOS>MOLECULE

  54   58
SMALL
USER_CHARGES
@<TRIPOS>ATOM
   1 C1          -8.2384     4.9266     2.3464 C.3          1    LIG   0.0000
   2 C2          -6.9114     4.8068     1.6123 C.2          1    LIG   0.0000
   3 S3          -6.5073     5.5677     0.1422 S.3          1    LIG   0.0000
   4 C4          -4.9315     4.9519     0.0041 C.2          1    LIG   0.0000
   5 N5          -4.0890     5.2367    -1.0325 N.2          1    LIG   0.0000
   6 C6          -2.8935     4.6855    -0.9951 C.2          1    LIG   0.0000
   7 N7          -2.5382     3.8696     0.0463 N.pl3        1    LIG   0.0000
   8 N8          -1.2977     3.3358     0.0317 N.2          1    LIG   0.0000
   9 C9          -1.2821     2.0859     0.0254 C.2          1    LIG   0.0000
  10 C10         -0.0175     1.3767     0.0098 C.ar         1    LIG   0.0000
  11 C11         -0.0116    -0.0145     0.0026 C.ar         1    LIG   0.0000
  12 C12          1.2073    -0.6841    -0.0121 C.ar         1    LIG   0.0000
  13 C13          2.4069     0.0197    -0.0206 C.ar         1    LIG   0.0000
  14 C14          2.3775     1.4104    -0.0133 C.ar         1    LIG   0.0000
  15 C15          3.6230     2.1528    -0.0214 C.2          1    LIG   0.0000
  16 N16          3.6057     3.4026    -0.0148 N.2          1    LIG   0.0000
  17 N17          4.8317     3.9690    -0.0236 N.pl3        1    LIG   0.0000
  18 C18          5.1655     4.7832     1.0262 C.2          1    LIG   0.0000
  19 N19          6.3461     5.3652     1.0695 N.2          1    LIG   0.0000
  20 C20          7.1957     5.1135     0.0302 C.2          1    LIG   0.0000
  21 S21          8.7547     5.7719    -0.1013 S.3          1    LIG   0.0000
  22 C22          9.1786     5.0371    -1.5792 C.2          1    LIG   0.0000
  23 C23         10.5019     5.1993    -2.3117 C.3          1    LIG   0.0000
  24 C24          8.1064     4.2902    -1.9606 C.2          1    LIG   0.0000
  25 C25          8.1616     3.4998    -3.2579 C.3          1    LIG   0.0000
  26 C26          7.0025     4.3312    -1.0660 C.2          1    LIG   0.0000
  27 C27          5.7106     3.7373    -1.0515 C.2          1    LIG   0.0000
  28 O28          5.3381     3.0015    -1.9511 O.2          1    LIG   0.0000
  29 C29          1.1700     2.1005     0.0019 C.ar         1    LIG   0.0000
  30 C30         -3.4105     3.6043     1.0717 C.2          1    LIG   0.0000
  31 O31         -3.0186     2.8692     1.9636 O.2          1    LIG   0.0000
  32 C32         -4.7176     4.1637     1.0922 C.2          1    LIG   0.0000
  33 C33         -5.8199     4.0845     1.9862 C.2          1    LIG   0.0000
  34 C34         -5.8540     3.2796     3.2753 C.3          1    LIG   0.0000
  35 H           -8.2077     4.3783     3.1821 H            1    LIG   0.0000
  36 H           -8.4038     5.8843     2.5819 H            1    LIG   0.0000
  37 H           -8.9760     4.5959     1.7577 H            1    LIG   0.0000
  38 H           -2.2410     4.8638    -1.7316 H            1    LIG   0.0000
  39 H           -2.1418     1.5751     0.0312 H            1    LIG   0.0000
  40 H           -0.8712    -0.5255     0.0078 H            1    LIG   0.0000
  41 H            1.2213    -1.6840    -0.0167 H            1    LIG   0.0000
  42 H            3.2798    -0.4681    -0.0318 H            1    LIG   0.0000
  43 H            4.4958     1.6649    -0.0323 H            1    LIG   0.0000
  44 H            4.5086     4.9367     1.7644 H            1    LIG   0.0000
  45 H           10.4856     4.6591    -3.1531 H            1    LIG   0.0000
  46 H           10.6420     6.1634    -2.5373 H            1    LIG   0.0000
  47 H           11.2480     4.8821    -1.7263 H            1    LIG   0.0000
  48 H            7.2990     3.0108    -3.3872 H            1    LIG   0.0000
  49 H            8.3078     4.1259    -4.0238 H            1    LIG   0.0000
  50 H            8.9143     2.8427    -3.2162 H            1    LIG   0.0000
  51 H            1.1560     3.1004     0.0070 H            1    LIG   0.0000
  52 H           -4.9788     2.8121     3.3996 H            1    LIG   0.0000
  53 H           -6.0165     3.8937     4.0476 H            1    LIG   0.0000
  54 H           -6.5892     2.6034     3.2267 H            1    LIG   0.0000
@<TRIPOS>BOND
   1        1        2 1
   2        2        3 1
   3        3        4 1
   4        4        5 1
   5        5        6 2
   6        6        7 1
   7        7        8 1
   8        8        9 2
   9        9       10 1
  10       10       11 ar
  11       11       12 ar
  12       12       13 ar
  13       13       14 ar
  14       14       15 1
  15       15       16 2
  16       16       17 1
  17       17       18 1
  18       18       19 2
  19       19       20 1
  20       20       21 1
  21       21       22 1
  22       22       23 1
  23       22       24 2
  24       24       25 1
  25       24       26 1
  26       26       20 2
  27       26       27 1
  28       27       17 1
  29       27       28 2
  30       14       29 ar
  31       29       10 ar
  32        7       30 1
  33       30       31 2
  34       30       32 1
  35       32        4 2
  36       32       33 1
  37       33        2 2
  38       33       34 1
  39        1       35 1
  40        1       36 1
  41        1       37 1
  42        6       38 1
  43        9       39 1
  44       11       40 1
  45       12       41 1
  46       13       42 1
  47       15       43 1
  48       18       44 1
  49       23       45 1
  50       23       46 1
  51       23       47 1
  52       25       48 1
  53       25       49 1
  54       25       50 1
  55       29       51 1
  56       34       52 1
  57       34       53 1
  58       34       54 1

