@<TRIPOS>MOLECULE
*****
 54 58 0 0 0
SMALL
USER_CHARGES

@<TRIPOS>ATOM
      1 C1         -7.2185    7.2967    2.3375 C.3     1  LIG1        0.0000
      2 C2         -6.2201    6.4135    1.6046 C.2     1  LIG1        0.0000
      3 S3         -6.4887    5.6113    0.1254 S.3     1  LIG1        0.0000
      4 C4         -4.9652    4.8738   -0.0023 C.2     1  LIG1        0.0000
      5 N5         -4.5926    4.0666   -1.0391 N.2     1  LIG1        0.0000
      6 C6         -3.3728    3.5719   -0.9984 C.2     1  LIG1        0.0000
      7 N7         -2.5382    3.8696    0.0463 N.am    1  LIG1        0.0000
      8 N8         -1.2977    3.3358    0.0317 N.2     1  LIG1        0.0000
      9 C9         -1.2821    2.0859    0.0254 C.2     1  LIG1        0.0000
     10 C10        -0.0175    1.3767    0.0098 C.3     1  LIG1        0.0000
     11 C11        -0.0116   -0.0145    0.0026 C.3     1  LIG1        0.0000
     12 C12         1.2073   -0.6841   -0.0121 C.3     1  LIG1        0.0000
     13 C13         2.4069    0.0197   -0.0206 C.3     1  LIG1        0.0000
     14 C14         2.3775    1.4104   -0.0133 C.3     1  LIG1        0.0000
     15 C15         3.6230    2.1528   -0.0214 C.2     1  LIG1        0.0000
     16 N16         3.6057    3.4026   -0.0148 N.2     1  LIG1        0.0000
     17 N17         4.8317    3.9690   -0.0236 N.am    1  LIG1        0.0000
     18 C18         5.6739    3.6826    1.0181 C.2     1  LIG1        0.0000
     19 N19         6.8803    4.2088    1.0641 N.2     1  LIG1        0.0000
     20 C20         7.2314    5.0362    0.0358 C.2     1  LIG1        0.0000
     21 S21         8.7350    5.8148   -0.0841 S.3     1  LIG1        0.0000
     22 C22         8.4452    6.6249   -1.5550 C.2     1  LIG1        0.0000
     23 C23         9.4200    7.5416   -2.2785 C.3     1  LIG1        0.0000
     24 C24         7.1835    6.2882   -1.9392 C.2     1  LIG1        0.0000
     25 C25         6.6116    6.8553   -3.2284 C.3     1  LIG1        0.0000
     26 C26         6.5070    5.4038   -1.0555 C.2     1  LIG1        0.0000
     27 C27         5.2175    4.8046   -1.0413 C.2     1  LIG1        0.0000
     28 O28         4.4095    5.0116   -1.9322 O.2     1  LIG1        0.0000
     29 C29         1.1700    2.1005    0.0019 C.3     1  LIG1        0.0000
     30 C30        -2.9457    4.6842    1.0725 C.2     1  LIG1        0.0000
     31 O31        -2.1433    4.9032    1.9655 O.2     1  LIG1        0.0000
     32 C32        -4.2505    5.2491    1.0928 C.2     1  LIG1        0.0000
     33 C33        -4.9499    6.1062    1.9855 C.2     1  LIG1        0.0000
     34 C34        -4.3928    6.6748    3.2805 C.3     1  LIG1        0.0000
     35 H          -6.8036    7.6411    3.1797 H       1  LIG1        0.0000
     36 H          -7.4743    8.0667    1.7529 H       1  LIG1        0.0000
     37 H          -8.0340    6.7630    2.5616 H       1  LIG1        0.0000
     38 H          -3.0538    2.9752   -1.7347 H       1  LIG1        0.0000
     39 H          -2.1418    1.5751    0.0312 H       1  LIG1        0.0000
     40 H          -0.8712   -0.5255    0.0078 H       1  LIG1        0.0000
     41 H           1.2213   -1.6840   -0.0167 H       1  LIG1        0.0000
     42 H           3.2798   -0.4681   -0.0318 H       1  LIG1        0.0000
     43 H           4.4958    1.6649   -0.0323 H       1  LIG1        0.0000
     44 H           5.3708    3.0702    1.7481 H       1  LIG1        0.0000
     45 H           8.9961    7.8836   -3.1172 H       1  LIG1        0.0000
     46 H           9.6555    8.3119   -1.6860 H       1  LIG1        0.0000
     47 H          10.2492    7.0319   -2.5080 H       1  LIG1        0.0000
     48 H           5.6824    6.5103   -3.3610 H       1  LIG1        0.0000
     49 H           6.5918    7.8536   -3.1736 H       1  LIG1        0.0000
     50 H           7.1843    6.5751   -3.9988 H       1  LIG1        0.0000
     51 H           1.1560    3.1004    0.0070 H       1  LIG1        0.0000
     52 H          -3.4549    6.3530    3.4096 H       1  LIG1        0.0000
     53 H          -4.3993    7.6738    3.2360 H       1  LIG1        0.0000
     54 H          -4.9578    6.3717    4.0479 H       1  LIG1        0.0000
@<TRIPOS>BOND
     1     1     2    1
     2     2     3    1
     3     3     4    1
     4     4     5    1
     5     5     6    2
     6     6     7    1
     7     7     8    1
     8     8     9    2
     9     9    10    1
    10    10    11   ar
    11    11    12   ar
    12    12    13   ar
    13    13    14   ar
    14    14    15    1
    15    15    16    2
    16    16    17    1
    17    17    18    1
    18    18    19    2
    19    19    20    1
    20    20    21    1
    21    21    22    1
    22    22    23    1
    23    22    24    2
    24    24    25    1
    25    24    26    1
    26    26    20    2
    27    26    27    1
    28    27    17   am
    29    27    28    2
    30    14    29   ar
    31    29    10   ar
    32     7    30   am
    33    30    31    2
    34    30    32    1
    35    32     4    2
    36    32    33    1
    37    33     2    2
    38    33    34    1
    39     1    35    1
    40     1    36    1
    41     1    37    1
    42     6    38    1
    43     9    39    1
    44    11    40    1
    45    12    41    1
    46    13    42    1
    47    15    43    1
    48    18    44    1
    49    23    45    1
    50    23    46    1
    51    23    47    1
    52    25    48    1
    53    25    49    1
    54    25    50    1
    55    29    51    1
    56    34    52    1
    57    34    53    1
    58    34    54    1
