@<TRIPOS>MOLECULE
*****
 54 58 0 0 0
SMALL
USER_CHARGES

@<TRIPOS>ATOM
      1 C1         -6.8850    8.1681   -1.1903 C.3     1  LIG1        0.0000
      2 C2         -5.9948    7.0021   -0.7874 C.2     1  LIG1        0.0000
      3 S3         -6.4916    5.6065    0.0547 S.3     1  LIG1        0.0000
      4 C4         -4.9798    4.8367    0.1116 C.2     1  LIG1        0.0000
      5 N5         -4.7633    3.6226    0.6985 N.2     1  LIG1        0.0000
      6 C6         -3.5336    3.1532    0.6565 C.2     1  LIG1        0.0000
      7 N7         -2.5382    3.8696    0.0463 N.am    1  LIG1        0.0000
      8 N8         -1.2977    3.3358    0.0317 N.2     1  LIG1        0.0000
      9 C9         -1.2821    2.0859    0.0254 C.2     1  LIG1        0.0000
     10 C10        -0.0175    1.3767    0.0098 C.3     1  LIG1        0.0000
     11 C11        -0.0116   -0.0145    0.0026 C.3     1  LIG1        0.0000
     12 C12         1.2073   -0.6841   -0.0121 C.3     1  LIG1        0.0000
     13 C13         2.4069    0.0197   -0.0206 C.3     1  LIG1        0.0000
     14 C14         2.3775    1.4104   -0.0133 C.3     1  LIG1        0.0000
     15 C15         3.6230    2.1528   -0.0214 C.2     1  LIG1        0.0000
     16 N16         3.6057    3.4026   -0.0148 N.2     1  LIG1        0.0000
     17 N17         4.8317    3.9690   -0.0236 N.am    1  LIG1        0.0000
     18 C18         5.8455    3.2854   -0.6410 C.2     1  LIG1        0.0000
     19 N19         7.0625    3.7874   -0.6780 N.2     1  LIG1        0.0000
     20 C20         7.2470    5.0006   -0.0785 C.2     1  LIG1        0.0000
     21 S21         8.7381    5.8093   -0.0134 S.3     1  LIG1        0.0000
     22 C22         8.2048    7.1827    0.8430 C.2     1  LIG1        0.0000
     23 C23         9.0640    8.3674    1.2580 C.3     1  LIG1        0.0000
     24 C24         6.8758    7.0012    1.0749 C.2     1  LIG1        0.0000
     25 C25         6.0911    8.0608    1.8314 C.3     1  LIG1        0.0000
     26 C26         6.3412    5.7879    0.5623 C.2     1  LIG1        0.0000
     27 C27         5.0525    5.1870    0.5685 C.2     1  LIG1        0.0000
     28 O28         4.0985    5.7323    1.0995 O.2     1  LIG1        0.0000
     29 C29         1.1700    2.1005    0.0019 C.3     1  LIG1        0.0000
     30 C30        -2.7910    5.0874   -0.5332 C.2     1  LIG1        0.0000
     31 O31        -1.8518    5.6630   -1.0585 O.2     1  LIG1        0.0000
     32 C32        -4.0951    5.6541   -0.5210 C.2     1  LIG1        0.0000
     33 C33        -4.6616    6.8581   -1.0211 C.2     1  LIG1        0.0000
     34 C34        -3.9051    7.9457   -1.7665 C.3     1  LIG1        0.0000
     35 H          -6.3391    8.8529   -1.6731 H       1  LIG1        0.0000
     36 H          -7.6139    7.8391   -1.7906 H       1  LIG1        0.0000
     37 H          -7.2870    8.5788   -0.3719 H       1  LIG1        0.0000
     38 H          -3.3251    2.2681    1.0727 H       1  LIG1        0.0000
     39 H          -2.1418    1.5751    0.0312 H       1  LIG1        0.0000
     40 H          -0.8712   -0.5255    0.0078 H       1  LIG1        0.0000
     41 H           1.2213   -1.6840   -0.0167 H       1  LIG1        0.0000
     42 H           3.2798   -0.4681   -0.0318 H       1  LIG1        0.0000
     43 H           4.4958    1.6649   -0.0323 H       1  LIG1        0.0000
     44 H           5.6604    2.3995   -1.0663 H       1  LIG1        0.0000
     45 H           8.5003    9.0326    1.7477 H       1  LIG1        0.0000
     46 H           9.8013    8.0516    1.8550 H       1  LIG1        0.0000
     47 H           9.4550    8.7970    0.4440 H       1  LIG1        0.0000
     48 H           5.1369    7.7731    1.9143 H       1  LIG1        0.0000
     49 H           6.4841    8.1790    2.7433 H       1  LIG1        0.0000
     50 H           6.1360    8.9273    1.3342 H       1  LIG1        0.0000
     51 H           1.1560    3.1004    0.0070 H       1  LIG1        0.0000
     52 H          -2.9438    7.6842   -1.8523 H       1  LIG1        0.0000
     53 H          -4.3013    8.0630   -2.6772 H       1  LIG1        0.0000
     54 H          -3.9728    8.8055   -1.2604 H       1  LIG1        0.0000
@<TRIPOS>BOND
     1     1     2    1
     2     2     3    1
     3     3     4    1
     4     4     5    1
     5     5     6    2
     6     6     7    1
     7     7     8    1
     8     8     9    2
     9     9    10    1
    10    10    11   ar
    11    11    12   ar
    12    12    13   ar
    13    13    14   ar
    14    14    15    1
    15    15    16    2
    16    16    17    1
    17    17    18    1
    18    18    19    2
    19    19    20    1
    20    20    21    1
    21    21    22    1
    22    22    23    1
    23    22    24    2
    24    24    25    1
    25    24    26    1
    26    26    20    2
    27    26    27    1
    28    27    17   am
    29    27    28    2
    30    14    29   ar
    31    29    10   ar
    32     7    30   am
    33    30    31    2
    34    30    32    1
    35    32     4    2
    36    32    33    1
    37    33     2    2
    38    33    34    1
    39     1    35    1
    40     1    36    1
    41     1    37    1
    42     6    38    1
    43     9    39    1
    44    11    40    1
    45    12    41    1
    46    13    42    1
    47    15    43    1
    48    18    44    1
    49    23    45    1
    50    23    46    1
    51    23    47    1
    52    25    48    1
    53    25    49    1
    54    25    50    1
    55    29    51    1
    56    34    52    1
    57    34    53    1
    58    34    54    1
