@<TRIPOS>MOLECULE
*****
 54 58 0 0 0
SMALL
USER_CHARGES

@<TRIPOS>ATOM
      1 C1         -8.2888    4.9315   -2.1225 C.3     1  LIG1        0.0000
      2 C2         -6.9467    4.8074   -1.4171 C.2     1  LIG1        0.0000
      3 S3         -6.5195    5.5415    0.0602 S.3     1  LIG1        0.0000
      4 C4         -4.9344    4.9411    0.1515 C.2     1  LIG1        0.0000
      5 N5         -4.0717    5.2167    1.1738 N.2     1  LIG1        0.0000
      6 C6         -2.8749    4.6714    1.1047 C.2     1  LIG1        0.0000
      7 N7         -2.5382    3.8696    0.0463 N.am    1  LIG1        0.0000
      8 N8         -1.2977    3.3358    0.0317 N.2     1  LIG1        0.0000
      9 C9         -1.2821    2.0859    0.0254 C.2     1  LIG1        0.0000
     10 C10        -0.0175    1.3767    0.0098 C.3     1  LIG1        0.0000
     11 C11        -0.0116   -0.0145    0.0026 C.3     1  LIG1        0.0000
     12 C12         1.2073   -0.6841   -0.0121 C.3     1  LIG1        0.0000
     13 C13         2.4069    0.0197   -0.0206 C.3     1  LIG1        0.0000
     14 C14         2.3775    1.4104   -0.0133 C.3     1  LIG1        0.0000
     15 C15         3.6230    2.1528   -0.0214 C.2     1  LIG1        0.0000
     16 N16         3.6057    3.4026   -0.0148 N.2     1  LIG1        0.0000
     17 N17         4.8317    3.9690   -0.0236 N.am    1  LIG1        0.0000
     18 C18         5.1471    4.7903   -1.0736 C.2     1  LIG1        0.0000
     19 N19         6.3291    5.3676   -1.1369 N.2     1  LIG1        0.0000
     20 C20         7.1989    5.1042   -0.1173 C.2     1  LIG1        0.0000
     21 S21         8.7677    5.7451   -0.0196 S.3     1  LIG1        0.0000
     22 C22         9.2142    5.0074    1.4502 C.2     1  LIG1        0.0000
     23 C23        10.5526    5.1594    2.1570 C.3     1  LIG1        0.0000
     24 C24         8.1446    4.2671    1.8512 C.2     1  LIG1        0.0000
     25 C25         8.2211    3.4710    3.1440 C.3     1  LIG1        0.0000
     26 C26         7.0223    4.3203    0.9805 C.2     1  LIG1        0.0000
     27 C27         5.7301    3.7268    0.9848 C.2     1  LIG1        0.0000
     28 O28         5.3746    2.9822    1.8841 O.2     1  LIG1        0.0000
     29 C29         1.1700    2.1005    0.0019 C.3     1  LIG1        0.0000
     30 C30        -3.4301    3.6142   -0.9647 C.2     1  LIG1        0.0000
     31 O31        -3.0553    2.8886   -1.8716 O.2     1  LIG1        0.0000
     32 C32        -4.7374    4.1734   -0.9543 C.2     1  LIG1        0.0000
     33 C33        -5.8581    4.0997   -1.8257 C.2     1  LIG1        0.0000
     34 C34        -5.9138    3.3153   -3.1266 C.3     1  LIG1        0.0000
     35 H          -8.2703    4.4007   -2.9698 H       1  LIG1        0.0000
     36 H          -9.0121    4.5829   -1.5264 H       1  LIG1        0.0000
     37 H          -8.4661    5.8924   -2.3349 H       1  LIG1        0.0000
     38 H          -2.2078    4.8437    1.8294 H       1  LIG1        0.0000
     39 H          -2.1418    1.5751    0.0312 H       1  LIG1        0.0000
     40 H          -0.8712   -0.5255    0.0078 H       1  LIG1        0.0000
     41 H           1.2213   -1.6840   -0.0167 H       1  LIG1        0.0000
     42 H           3.2798   -0.4681   -0.0318 H       1  LIG1        0.0000
     43 H           4.4958    1.6649   -0.0323 H       1  LIG1        0.0000
     44 H           4.4756    4.9525   -1.7966 H       1  LIG1        0.0000
     45 H          10.5482    4.6196    2.9988 H       1  LIG1        0.0000
     46 H          11.2847    4.8362    1.5575 H       1  LIG1        0.0000
     47 H          10.7046    6.1225    2.3794 H       1  LIG1        0.0000
     48 H           7.3577    2.9879    3.2895 H       1  LIG1        0.0000
     49 H           8.9677    2.8085    3.0839 H       1  LIG1        0.0000
     50 H           8.3881    4.0929    3.9090 H       1  LIG1        0.0000
     51 H           1.1560    3.1004    0.0070 H       1  LIG1        0.0000
     52 H          -5.0381    2.8565   -3.2770 H       1  LIG1        0.0000
     53 H          -6.6428    2.6328   -3.0734 H       1  LIG1        0.0000
     54 H          -6.0973    3.9405   -3.8852 H       1  LIG1        0.0000
@<TRIPOS>BOND
     1     1     2    1
     2     2     3    1
     3     3     4    1
     4     4     5    1
     5     5     6    2
     6     6     7    1
     7     7     8    1
     8     8     9    2
     9     9    10    1
    10    10    11   ar
    11    11    12   ar
    12    12    13   ar
    13    13    14   ar
    14    14    15    1
    15    15    16    2
    16    16    17    1
    17    17    18    1
    18    18    19    2
    19    19    20    1
    20    20    21    1
    21    21    22    1
    22    22    23    1
    23    22    24    2
    24    24    25    1
    25    24    26    1
    26    26    20    2
    27    26    27    1
    28    27    17   am
    29    27    28    2
    30    14    29   ar
    31    29    10   ar
    32     7    30   am
    33    30    31    2
    34    30    32    1
    35    32     4    2
    36    32    33    1
    37    33     2    2
    38    33    34    1
    39     1    35    1
    40     1    36    1
    41     1    37    1
    42     6    38    1
    43     9    39    1
    44    11    40    1
    45    12    41    1
    46    13    42    1
    47    15    43    1
    48    18    44    1
    49    23    45    1
    50    23    46    1
    51    23    47    1
    52    25    48    1
    53    25    49    1
    54    25    50    1
    55    29    51    1
    56    34    52    1
    57    34    53    1
    58    34    54    1
