@<TRIPOS>MOLECULE

  25   25
SMALL
USER_CHARGES
@<TRIPOS>ATOM
   1 C1           0.1272     0.8203    -1.3167 C.3          1    LIG   0.0000
   2 C2           1.2925     1.2925    -0.4626 C.3          1    LIG   0.0000
   3 C3           1.0000     1.0000     1.0000 C.3          1    LIG   0.0000
   4 C4           1.8776     1.8776     1.8776 C.3          1    LIG   0.0000
   5 O5           1.6043     1.6043     3.2440 O.3          1    LIG   0.0000
   6 C6           3.3396     1.5852     1.5852 C.ar         1    LIG   0.0000
   7 C7           3.8315     1.7837     0.2992 C.ar         1    LIG   0.0000
   8 C8           5.1701     1.5166     0.0312 C.ar         1    LIG   0.0000
   9 C9           5.9993     1.0545     1.0479 C.ar         1    LIG   0.0000
  10 Br10         7.8858     0.6796     0.6682 Br           1    LIG   0.0000
  11 C11          5.5071     0.8552     2.3340 C.ar         1    LIG   0.0000
  12 C12          4.1687     1.1233     2.6012 C.ar         1    LIG   0.0000
  13 H            1.6851     2.8398     1.6851 H            1    LIG   0.0000
  14 H            0.3196     1.0128    -2.2789 H            1    LIG   0.0000
  15 H            0.0001    -0.1638    -1.1925 H            1    LIG   0.0000
  16 H           -0.7049     1.3013    -1.0405 H            1    LIG   0.0000
  17 H            2.1246     0.8115    -0.7388 H            1    LIG   0.0000
  18 H            1.4196     2.2766    -0.5868 H            1    LIG   0.0000
  19 H            0.0377     1.1925     1.1925 H            1    LIG   0.0000
  20 H            1.1925     0.0377     1.1925 H            1    LIG   0.0000
  21 H            0.6420     1.7967     3.4364 H            1    LIG   0.0000
  22 H            3.2282     2.1155    -0.4261 H            1    LIG   0.0000
  23 H            5.5350     1.6563    -0.8893 H            1    LIG   0.0000
  24 H            6.1098     0.5224     3.0592 H            1    LIG   0.0000
  25 H            3.8037     0.9842     3.5218 H            1    LIG   0.0000
@<TRIPOS>BOND
   1        1        2 1
   2        2        3 1
   3        3        4 1
   4        4        5 1
   5        4        6 1
   6        6        7 ar
   7        7        8 ar
   8        8        9 ar
   9        9       10 1
  10        9       11 ar
  11       11       12 ar
  12       12        6 ar
  13        4       13 1
  14        1       14 1
  15        1       15 1
  16        1       16 1
  17        2       17 1
  18        2       18 1
  19        3       19 1
  20        3       20 1
  21        5       21 1
  22        7       22 1
  23        8       23 1
  24       11       24 1
  25       12       25 1

@<TRIPOS>MOLECULE

  25   25
SMALL
USER_CHARGES
@<TRIPOS>ATOM
   1 C1           0.4150     0.4150    -1.3402 C.3          1    LIG   0.0000
   2 C2           1.2925     1.2925    -0.4626 C.3          1    LIG   0.0000
   3 C3           1.0000     1.0000     1.0000 C.3          1    LIG   0.0000
   4 C4           1.8776     1.8776     1.8776 C.3          1    LIG   0.0000
   5 O5           1.6043     1.6043     3.2440 O.3          1    LIG   0.0000
   6 C6           3.3396     1.5852     1.5852 C.ar         1    LIG   0.0000
   7 C7           3.6864     0.3857     0.9720 C.ar         1    LIG   0.0000
   8 C8           5.0248     0.1178     0.7036 C.ar         1    LIG   0.0000
   9 C9           5.9987     1.0483     1.0510 C.ar         1    LIG   0.0000
  10 Br10         7.8843     0.6691     0.6710 Br           1    LIG   0.0000
  11 C11          5.6518     2.2477     1.6651 C.ar         1    LIG   0.0000
  12 C12          4.3133     2.5151     1.9322 C.ar         1    LIG   0.0000
  13 H            1.6851     2.8398     1.6851 H            1    LIG   0.0000
  14 H            0.6074     0.6074    -2.3024 H            1    LIG   0.0000
  15 H            0.6074    -0.5473    -1.1477 H            1    LIG   0.0000
  16 H           -0.5473     0.6074    -1.1477 H            1    LIG   0.0000
  17 H            2.2548     1.1001    -0.6551 H            1    LIG   0.0000
  18 H            1.1001     2.2548    -0.6551 H            1    LIG   0.0000
  19 H            0.0377     1.1925     1.1925 H            1    LIG   0.0000
  20 H            1.1925     0.0377     1.1925 H            1    LIG   0.0000
  21 H            0.6420     1.7967     3.4364 H            1    LIG   0.0000
  22 H            2.9800    -0.2780     0.7262 H            1    LIG   0.0000
  23 H            5.2860    -0.7408     0.2625 H            1    LIG   0.0000
  24 H            6.3581     2.9112     1.9119 H            1    LIG   0.0000
  25 H            4.0519     3.3739     2.3729 H            1    LIG   0.0000
@<TRIPOS>BOND
   1        1        2 1
   2        2        3 1
   3        3        4 1
   4        4        5 1
   5        4        6 1
   6        6        7 ar
   7        7        8 ar
   8        8        9 ar
   9        9       10 1
  10        9       11 ar
  11       11       12 ar
  12       12        6 ar
  13        4       13 1
  14        1       14 1
  15        1       15 1
  16        1       16 1
  17        2       17 1
  18        2       18 1
  19        3       19 1
  20        3       20 1
  21        5       21 1
  22        7       22 1
  23        8       23 1
  24       11       24 1
  25       12       25 1

@<TRIPOS>MOLECULE

  25   25
SMALL
USER_CHARGES
@<TRIPOS>ATOM
   1 C1           0.4150     0.4150    -1.3402 C.3          1    LIG   0.0000
   2 C2           1.2925     1.2925    -0.4626 C.3          1    LIG   0.0000
   3 C3           1.0000     1.0000     1.0000 C.3          1    LIG   0.0000
   4 C4           1.8776     1.8776     1.8776 C.3          1    LIG   0.0000
   5 O5           1.6043     1.6043     3.2440 O.3          1    LIG   0.0000
   6 C6           3.3396     1.5852     1.5852 C.ar         1    LIG   0.0000
   7 C7           4.2491     2.6365     1.5347 C.ar         1    LIG   0.0000
   8 C8           5.5879     2.3692     1.2675 C.ar         1    LIG   0.0000
   9 C9           6.0012     1.0583     1.0534 C.ar         1    LIG   0.0000
  10 Br10         7.8886     0.6838     0.6779 Br           1    LIG   0.0000
  11 C11          5.0912     0.0069     1.1031 C.ar         1    LIG   0.0000
  12 C12          3.7530     0.2750     1.3711 C.ar         1    LIG   0.0000
  13 H            1.6851     2.8398     1.6851 H            1    LIG   0.0000
  14 H            0.6074     0.6074    -2.3024 H            1    LIG   0.0000
  15 H            0.6074    -0.5473    -1.1477 H            1    LIG   0.0000
  16 H           -0.5473     0.6074    -1.1477 H            1    LIG   0.0000
  17 H            2.2548     1.1001    -0.6551 H            1    LIG   0.0000
  18 H            1.1001     2.2548    -0.6551 H            1    LIG   0.0000
  19 H            0.0377     1.1925     1.1925 H            1    LIG   0.0000
  20 H            1.1925     0.0377     1.1925 H            1    LIG   0.0000
  21 H            0.6420     1.7967     3.4364 H            1    LIG   0.0000
  22 H            3.9433     3.5760     1.6890 H            1    LIG   0.0000
  23 H            6.2509     3.1168     1.2294 H            1    LIG   0.0000
  24 H            5.3965    -0.9326     0.9477 H            1    LIG   0.0000
  25 H            3.0900    -0.4725     1.4098 H            1    LIG   0.0000
@<TRIPOS>BOND
   1        1        2 1
   2        2        3 1
   3        3        4 1
   4        4        5 1
   5        4        6 1
   6        6        7 ar
   7        7        8 ar
   8        8        9 ar
   9        9       10 1
  10        9       11 ar
  11       11       12 ar
  12       12        6 ar
  13        4       13 1
  14        1       14 1
  15        1       15 1
  16        1       16 1
  17        2       17 1
  18        2       18 1
  19        3       19 1
  20        3       20 1
  21        5       21 1
  22        7       22 1
  23        8       23 1
  24       11       24 1
  25       12       25 1

@<TRIPOS>MOLECULE

  25   25
SMALL
USER_CHARGES
@<TRIPOS>ATOM
   1 C1           0.4150     0.4150    -1.3402 C.3          1    LIG   0.0000
   2 C2           1.2925     1.2925    -0.4626 C.3          1    LIG   0.0000
   3 C3           1.0000     1.0000     1.0000 C.3          1    LIG   0.0000
   4 C4           1.8776     1.8776     1.8776 C.3          1    LIG   0.0000
   5 O5           1.6043     1.6043     3.2440 O.3          1    LIG   0.0000
   6 C6           3.3396     1.5852     1.5852 C.ar         1    LIG   0.0000
   7 C7           4.0537     2.4411     0.7530 C.ar         1    LIG   0.0000
   8 C8           5.3924     2.1740     0.4854 C.ar         1    LIG   0.0000
   9 C9           6.0003     1.0574     1.0499 C.ar         1    LIG   0.0000
  10 Br10         7.8874     0.6835     0.6722 Br           1    LIG   0.0000
  11 C11          5.2858     0.2009     1.8817 C.ar         1    LIG   0.0000
  12 C12          3.9475     0.4692     2.1493 C.ar         1    LIG   0.0000
  13 H            1.6851     2.8398     1.6851 H            1    LIG   0.0000
  14 H            0.6074     0.6074    -2.3024 H            1    LIG   0.0000
  15 H            0.6074    -0.5473    -1.1477 H            1    LIG   0.0000
  16 H           -0.5473     0.6074    -1.1477 H            1    LIG   0.0000
  17 H            2.2548     1.1001    -0.6551 H            1    LIG   0.0000
  18 H            1.1001     2.2548    -0.6551 H            1    LIG   0.0000
  19 H            0.0377     1.1925     1.1925 H            1    LIG   0.0000
  20 H            1.1925     0.0377     1.1925 H            1    LIG   0.0000
  21 H            0.6420     1.7967     3.4364 H            1    LIG   0.0000
  22 H            3.6087     3.2412     0.3507 H            1    LIG   0.0000
  23 H            5.9160     2.7826    -0.1108 H            1    LIG   0.0000
  24 H            5.7301    -0.5998     2.2832 H            1    LIG   0.0000
  25 H            3.4239    -0.1390     2.7459 H            1    LIG   0.0000
@<TRIPOS>BOND
   1        1        2 1
   2        2        3 1
   3        3        4 1
   4        4        5 1
   5        4        6 1
   6        6        7 ar
   7        7        8 ar
   8        8        9 ar
   9        9       10 1
  10        9       11 ar
  11       11       12 ar
  12       12        6 ar
  13        4       13 1
  14        1       14 1
  15        1       15 1
  16        1       16 1
  17        2       17 1
  18        2       18 1
  19        3       19 1
  20        3       20 1
  21        5       21 1
  22        7       22 1
  23        8       23 1
  24       11       24 1
  25       12       25 1

@<TRIPOS>MOLECULE

  25   25
SMALL
USER_CHARGES
@<TRIPOS>ATOM
   1 C1           0.4150     0.4150    -1.3402 C.3          1    LIG   0.0000
   2 C2           1.2925     1.2925    -0.4626 C.3          1    LIG   0.0000
   3 C3           1.0000     1.0000     1.0000 C.3          1    LIG   0.0000
   4 C4           1.8776     1.8776     1.8776 C.3          1    LIG   0.0000
   5 O5           1.6043     1.6043     3.2440 O.3          1    LIG   0.0000
   6 C6           3.3396     1.5852     1.5852 C.ar         1    LIG   0.0000
   7 C7           3.8836     0.3663     1.9771 C.ar         1    LIG   0.0000
   8 C8           5.2220     0.0980     1.7092 C.ar         1    LIG   0.0000
   9 C9           5.9996     1.0483     1.0555 C.ar         1    LIG   0.0000
  10 Br10         7.8854     0.6676     0.6780 Br           1    LIG   0.0000
  11 C11          5.4556     2.2677     0.6641 C.ar         1    LIG   0.0000
  12 C12          4.1171     2.5348     0.9318 C.ar         1    LIG   0.0000
  13 H            1.6851     2.8398     1.6851 H            1    LIG   0.0000
  14 H            0.6074     0.6074    -2.3024 H            1    LIG   0.0000
  15 H            0.6074    -0.5473    -1.1477 H            1    LIG   0.0000
  16 H           -0.5473     0.6074    -1.1477 H            1    LIG   0.0000
  17 H            2.2548     1.1001    -0.6551 H            1    LIG   0.0000
  18 H            1.1001     2.2548    -0.6551 H            1    LIG   0.0000
  19 H            0.0377     1.1925     1.1925 H            1    LIG   0.0000
  20 H            1.1925     0.0377     1.1925 H            1    LIG   0.0000
  21 H            0.6420     1.7967     3.4364 H            1    LIG   0.0000
  22 H            3.3176    -0.3109     2.4473 H            1    LIG   0.0000
  23 H            5.6237    -0.7750     1.9856 H            1    LIG   0.0000
  24 H            6.0216     2.9455     0.1950 H            1    LIG   0.0000
  25 H            3.7150     3.4075     0.6550 H            1    LIG   0.0000
@<TRIPOS>BOND
   1        1        2 1
   2        2        3 1
   3        3        4 1
   4        4        5 1
   5        4        6 1
   6        6        7 ar
   7        7        8 ar
   8        8        9 ar
   9        9       10 1
  10        9       11 ar
  11       11       12 ar
  12       12        6 ar
  13        4       13 1
  14        1       14 1
  15        1       15 1
  16        1       16 1
  17        2       17 1
  18        2       18 1
  19        3       19 1
  20        3       20 1
  21        5       21 1
  22        7       22 1
  23        8       23 1
  24       11       24 1
  25       12       25 1

@<TRIPOS>MOLECULE

  25   25
SMALL
USER_CHARGES
@<TRIPOS>ATOM
   1 C1           0.8203     0.1272    -1.3167 C.3          1    LIG   0.0000
   2 C2           1.2925     1.2925    -0.4626 C.3          1    LIG   0.0000
   3 C3           1.0000     1.0000     1.0000 C.3          1    LIG   0.0000
   4 C4           1.8776     1.8776     1.8776 C.3          1    LIG   0.0000
   5 O5           1.9610     1.3135     3.1780 O.3          1    LIG   0.0000
   6 C6           3.2691     1.9669     1.2740 C.ar         1    LIG   0.0000
   7 C7           3.9446     3.1828     1.2929 C.ar         1    LIG   0.0000
   8 C8           5.2188     3.2649     0.7409 C.ar         1    LIG   0.0000
   9 C9           5.8014     2.1346     0.1769 C.ar         1    LIG   0.0000
  10 Br10         7.5977     2.2523    -0.5997 Br           1    LIG   0.0000
  11 C11          5.1253     0.9187     0.1573 C.ar         1    LIG   0.0000
  12 C12          3.8517     0.8373     0.7102 C.ar         1    LIG   0.0000
  13 H            1.4803     2.7934     1.9363 H            1    LIG   0.0000
  14 H            1.0128     0.3196    -2.2789 H            1    LIG   0.0000
  15 H            1.3013    -0.7049    -1.0405 H            1    LIG   0.0000
  16 H           -0.1638     0.0001    -1.1925 H            1    LIG   0.0000
  17 H            2.2766     1.4196    -0.5868 H            1    LIG   0.0000
  18 H            0.8115     2.1246    -0.7388 H            1    LIG   0.0000
  19 H            0.0377     1.1925     1.1925 H            1    LIG   0.0000
  20 H            1.1925     0.0377     1.1925 H            1    LIG   0.0000
  21 H            1.0452     1.2547     3.5753 H            1    LIG   0.0000
  22 H            3.5180     3.9906     1.6998 H            1    LIG   0.0000
  23 H            5.7142     4.1334     0.7494 H            1    LIG   0.0000
  24 H            5.5511     0.1109    -0.2504 H            1    LIG   0.0000
  25 H            3.3563    -0.0313     0.7022 H            1    LIG   0.0000
@<TRIPOS>BOND
   1        1        2 1
   2        2        3 1
   3        3        4 1
   4        4        5 1
   5        4        6 1
   6        6        7 ar
   7        7        8 ar
   8        8        9 ar
   9        9       10 1
  10        9       11 ar
  11       11       12 ar
  12       12        6 ar
  13        4       13 1
  14        1       14 1
  15        1       15 1
  16        1       16 1
  17        2       17 1
  18        2       18 1
  19        3       19 1
  20        3       20 1
  21        5       21 1
  22        7       22 1
  23        8       23 1
  24       11       24 1
  25       12       25 1

@<TRIPOS>MOLECULE

  25   25
SMALL
USER_CHARGES
@<TRIPOS>ATOM
   1 C1           0.8203     0.1272    -1.3167 C.3          1    LIG   0.0000
   2 C2           1.2925     1.2925    -0.4626 C.3          1    LIG   0.0000
   3 C3           1.0000     1.0000     1.0000 C.3          1    LIG   0.0000
   4 C4           1.8776     1.8776     1.8776 C.3          1    LIG   0.0000
   5 O5           1.9610     1.3135     3.1780 O.3          1    LIG   0.0000
   6 C6           3.2691     1.9669     1.2740 C.ar         1    LIG   0.0000
   7 C7           3.6216     3.0913     0.5348 C.ar         1    LIG   0.0000
   8 C8           4.8956     3.1737    -0.0176 C.ar         1    LIG   0.0000
   9 C9           5.7999     2.1341     0.1735 C.ar         1    LIG   0.0000
  10 Br10         7.5953     2.2528    -0.6051 Br           1    LIG   0.0000
  11 C11          5.4470     1.0091     0.9122 C.ar         1    LIG   0.0000
  12 C12          4.1732     0.9280     1.4648 C.ar         1    LIG   0.0000
  13 H            1.4803     2.7934     1.9363 H            1    LIG   0.0000
  14 H            1.0128     0.3196    -2.2789 H            1    LIG   0.0000
  15 H            1.3013    -0.7049    -1.0405 H            1    LIG   0.0000
  16 H           -0.1638     0.0001    -1.1925 H            1    LIG   0.0000
  17 H            2.2766     1.4196    -0.5868 H            1    LIG   0.0000
  18 H            0.8115     2.1246    -0.7388 H            1    LIG   0.0000
  19 H            0.0377     1.1925     1.1925 H            1    LIG   0.0000
  20 H            1.1925     0.0377     1.1925 H            1    LIG   0.0000
  21 H            1.0452     1.2547     3.5753 H            1    LIG   0.0000
  22 H            2.9650     3.8338     0.4017 H            1    LIG   0.0000
  23 H            5.1605     3.9775    -0.5502 H            1    LIG   0.0000
  24 H            6.1029     0.2660     1.0446 H            1    LIG   0.0000
  25 H            3.9083     0.1245     1.9980 H            1    LIG   0.0000
@<TRIPOS>BOND
   1        1        2 1
   2        2        3 1
   3        3        4 1
   4        4        5 1
   5        4        6 1
   6        6        7 ar
   7        7        8 ar
   8        8        9 ar
   9        9       10 1
  10        9       11 ar
  11       11       12 ar
  12       12        6 ar
  13        4       13 1
  14        1       14 1
  15        1       15 1
  16        1       16 1
  17        2       17 1
  18        2       18 1
  19        3       19 1
  20        3       20 1
  21        5       21 1
  22        7       22 1
  23        8       23 1
  24       11       24 1
  25       12       25 1

@<TRIPOS>MOLECULE

  25   25
SMALL
USER_CHARGES
@<TRIPOS>ATOM
   1 C1           0.8203     0.1272    -1.3167 C.3          1    LIG   0.0000
   2 C2           1.2925     1.2925    -0.4626 C.3          1    LIG   0.0000
   3 C3           1.0000     1.0000     1.0000 C.3          1    LIG   0.0000
   4 C4           1.8776     1.8776     1.8776 C.3          1    LIG   0.0000
   5 O5           1.9610     1.3135     3.1780 O.3          1    LIG   0.0000
   6 C6           3.2691     1.9669     1.2740 C.ar         1    LIG   0.0000
   7 C7           4.0926     0.8459     1.2885 C.ar         1    LIG   0.0000
   8 C8           5.3665     0.9271     0.7356 C.ar         1    LIG   0.0000
   9 C9           5.8021     2.1243     0.1770 C.ar         1    LIG   0.0000
  10 Br10         7.5975     2.2362    -0.6026 Br           1    LIG   0.0000
  11 C11          4.9786     3.2457     0.1632 C.ar         1    LIG   0.0000
  12 C12          3.7047     3.1633     0.7156 C.ar         1    LIG   0.0000
  13 H            1.4803     2.7934     1.9363 H            1    LIG   0.0000
  14 H            1.0128     0.3196    -2.2789 H            1    LIG   0.0000
  15 H            1.3013    -0.7049    -1.0405 H            1    LIG   0.0000
  16 H           -0.1638     0.0001    -1.1925 H            1    LIG   0.0000
  17 H            2.2766     1.4196    -0.5868 H            1    LIG   0.0000
  18 H            0.8115     2.1246    -0.7388 H            1    LIG   0.0000
  19 H            0.0377     1.1925     1.1925 H            1    LIG   0.0000
  20 H            1.1925     0.0377     1.1925 H            1    LIG   0.0000
  21 H            1.0452     1.2547     3.5753 H            1    LIG   0.0000
  22 H            3.7718    -0.0106     1.6928 H            1    LIG   0.0000
  23 H            5.9671     0.1275     0.7397 H            1    LIG   0.0000
  24 H            5.2995     4.1026    -0.2400 H            1    LIG   0.0000
  25 H            3.1038     3.9626     0.7111 H            1    LIG   0.0000
@<TRIPOS>BOND
   1        1        2 1
   2        2        3 1
   3        3        4 1
   4        4        5 1
   5        4        6 1
   6        6        7 ar
   7        7        8 ar
   8        8        9 ar
   9        9       10 1
  10        9       11 ar
  11       11       12 ar
  12       12        6 ar
  13        4       13 1
  14        1       14 1
  15        1       15 1
  16        1       16 1
  17        2       17 1
  18        2       18 1
  19        3       19 1
  20        3       20 1
  21        5       21 1
  22        7       22 1
  23        8       23 1
  24       11       24 1
  25       12       25 1

@<TRIPOS>MOLECULE

  25   25
SMALL
USER_CHARGES
@<TRIPOS>ATOM
   1 C1           0.8203     0.1272    -1.3167 C.3          1    LIG   0.0000
   2 C2           1.2925     1.2925    -0.4626 C.3          1    LIG   0.0000
   3 C3           1.0000     1.0000     1.0000 C.3          1    LIG   0.0000
   4 C4           1.8776     1.8776     1.8776 C.3          1    LIG   0.0000
   5 O5           1.3135     1.9610     3.1780 O.3          1    LIG   0.0000
   6 C6           3.2691     1.2740     1.9669 C.ar         1    LIG   0.0000
   7 C7           3.6813     0.3630     0.9998 C.ar         1    LIG   0.0000
   8 C8           4.9554    -0.1895     1.0809 C.ar         1    LIG   0.0000
   9 C9           5.8002     0.1728     2.1250 C.ar         1    LIG   0.0000
  10 Br10         7.5958    -0.6064     2.2368 Br           1    LIG   0.0000
  11 C11          5.3875     1.0834     3.0926 C.ar         1    LIG   0.0000
  12 C12          4.1138     1.6359     3.0103 C.ar         1    LIG   0.0000
  13 H            1.9363     2.7934     1.4803 H            1    LIG   0.0000
  14 H            1.0128     0.3196    -2.2789 H            1    LIG   0.0000
  15 H            1.3013    -0.7049    -1.0405 H            1    LIG   0.0000
  16 H           -0.1638     0.0001    -1.1925 H            1    LIG   0.0000
  17 H            2.2766     1.4196    -0.5868 H            1    LIG   0.0000
  18 H            0.8115     2.1246    -0.7388 H            1    LIG   0.0000
  19 H            0.0377     1.1925     1.1925 H            1    LIG   0.0000
  20 H            1.1925     0.0377     1.1925 H            1    LIG   0.0000
  21 H            0.3976     2.3583     3.1193 H            1    LIG   0.0000
  22 H            3.0672     0.1075     0.2531 H            1    LIG   0.0000
  23 H            5.2629    -0.8449     0.3911 H            1    LIG   0.0000
  24 H            6.0009     1.3383     3.8401 H            1    LIG   0.0000
  25 H            3.8063     2.2917     3.6997 H            1    LIG   0.0000
@<TRIPOS>BOND
   1        1        2 1
   2        2        3 1
   3        3        4 1
   4        4        5 1
   5        4        6 1
   6        6        7 ar
   7        7        8 ar
   8        8        9 ar
   9        9       10 1
  10        9       11 ar
  11       11       12 ar
  12       12        6 ar
  13        4       13 1
  14        1       14 1
  15        1       15 1
  16        1       16 1
  17        2       17 1
  18        2       18 1
  19        3       19 1
  20        3       20 1
  21        5       21 1
  22        7       22 1
  23        8       23 1
  24       11       24 1
  25       12       25 1

@<TRIPOS>MOLECULE

  25   25
SMALL
USER_CHARGES
@<TRIPOS>ATOM
   1 C1           0.4150     0.4150    -1.3402 C.3          1    LIG   0.0000
   2 C2           1.2925     1.2925    -0.4626 C.3          1    LIG   0.0000
   3 C3           1.0000     1.0000     1.0000 C.3          1    LIG   0.0000
   4 C4           1.8776     1.8776     1.8776 C.3          1    LIG   0.0000
   5 O5           1.3135     1.9610     3.1780 O.3          1    LIG   0.0000
   6 C6           3.2691     1.2740     1.9669 C.ar         1    LIG   0.0000
   7 C7           4.1799     1.7910     2.8824 C.ar         1    LIG   0.0000
   8 C8           5.4538     1.2384     2.9648 C.ar         1    LIG   0.0000
   9 C9           5.8025     0.1792     2.1332 C.ar         1    LIG   0.0000
  10 Br10         7.5981    -0.5988     2.2518 Br           1    LIG   0.0000
  11 C11          4.8916    -0.3373     1.2170 C.ar         1    LIG   0.0000
  12 C12          3.6179     0.2153     1.1358 C.ar         1    LIG   0.0000
  13 H            1.9363     2.7934     1.4803 H            1    LIG   0.0000
  14 H            0.6074     0.6074    -2.3024 H            1    LIG   0.0000
  15 H            0.6074    -0.5473    -1.1477 H            1    LIG   0.0000
  16 H           -0.5473     0.6074    -1.1477 H            1    LIG   0.0000
  17 H            2.2548     1.1001    -0.6551 H            1    LIG   0.0000
  18 H            1.1001     2.2548    -0.6551 H            1    LIG   0.0000
  19 H            0.0377     1.1925     1.1925 H            1    LIG   0.0000
  20 H            1.1925     0.0377     1.1925 H            1    LIG   0.0000
  21 H            0.3976     2.3583     3.1193 H            1    LIG   0.0000
  22 H            3.9212     2.5531     3.4760 H            1    LIG   0.0000
  23 H            6.1167     1.6013     3.6197 H            1    LIG   0.0000
  24 H            5.1504    -1.0987     0.6225 H            1    LIG   0.0000
  25 H            2.9546    -0.1478     0.4814 H            1    LIG   0.0000
@<TRIPOS>BOND
   1        1        2 1
   2        2        3 1
   3        3        4 1
   4        4        5 1
   5        4        6 1
   6        6        7 ar
   7        7        8 ar
   8        8        9 ar
   9        9       10 1
  10        9       11 ar
  11       11       12 ar
  12       12        6 ar
  13        4       13 1
  14        1       14 1
  15        1       15 1
  16        1       16 1
  17        2       17 1
  18        2       18 1
  19        3       19 1
  20        3       20 1
  21        5       21 1
  22        7       22 1
  23        8       23 1
  24       11       24 1
  25       12       25 1

@<TRIPOS>MOLECULE

  25   25
SMALL
USER_CHARGES
@<TRIPOS>ATOM
   1 C1           0.1272     0.8203    -1.3167 C.3          1    LIG   0.0000
   2 C2           1.2925     1.2925    -0.4626 C.3          1    LIG   0.0000
   3 C3           1.0000     1.0000     1.0000 C.3          1    LIG   0.0000
   4 C4           1.8776     1.8776     1.8776 C.3          1    LIG   0.0000
   5 O5           1.3135     1.9610     3.1780 O.3          1    LIG   0.0000
   6 C6           3.2691     1.2740     1.9669 C.ar         1    LIG   0.0000
   7 C7           4.3797     2.1107     1.9298 C.ar         1    LIG   0.0000
   8 C8           5.6539     1.5586     2.0120 C.ar         1    LIG   0.0000
   9 C9           5.8033     0.1806     2.1290 C.ar         1    LIG   0.0000
  10 Br10         7.6000    -0.5954     2.2457 Br           1    LIG   0.0000
  11 C11          4.6924    -0.6564     2.1652 C.ar         1    LIG   0.0000
  12 C12          3.4188    -0.1034     2.0838 C.ar         1    LIG   0.0000
  13 H            1.9363     2.7934     1.4803 H            1    LIG   0.0000
  14 H            0.3196     1.0128    -2.2789 H            1    LIG   0.0000
  15 H            0.0001    -0.1638    -1.1925 H            1    LIG   0.0000
  16 H           -0.7049     1.3013    -1.0405 H            1    LIG   0.0000
  17 H            2.1246     0.8115    -0.7388 H            1    LIG   0.0000
  18 H            1.4196     2.2766    -0.5868 H            1    LIG   0.0000
  19 H            0.0377     1.1925     1.1925 H            1    LIG   0.0000
  20 H            1.1925     0.0377     1.1925 H            1    LIG   0.0000
  21 H            0.3976     2.3583     3.1193 H            1    LIG   0.0000
  22 H            4.2632     3.1003     1.8448 H            1    LIG   0.0000
  23 H            6.4596     2.1503     1.9872 H            1    LIG   0.0000
  24 H            4.8085    -1.6460     2.2491 H            1    LIG   0.0000
  25 H            2.6129    -0.6949     2.1092 H            1    LIG   0.0000
@<TRIPOS>BOND
   1        1        2 1
   2        2        3 1
   3        3        4 1
   4        4        5 1
   5        4        6 1
   6        6        7 ar
   7        7        8 ar
   8        8        9 ar
   9        9       10 1
  10        9       11 ar
  11       11       12 ar
  12       12        6 ar
  13        4       13 1
  14        1       14 1
  15        1       15 1
  16        1       16 1
  17        2       17 1
  18        2       18 1
  19        3       19 1
  20        3       20 1
  21        5       21 1
  22        7       22 1
  23        8       23 1
  24       11       24 1
  25       12       25 1

@<TRIPOS>MOLECULE

  25   25
SMALL
USER_CHARGES
@<TRIPOS>ATOM
   1 C1           0.1272     0.8203    -1.3167 C.3          1    LIG   0.0000
   2 C2           1.2925     1.2925    -0.4626 C.3          1    LIG   0.0000
   3 C3           1.0000     1.0000     1.0000 C.3          1    LIG   0.0000
   4 C4           1.8776     1.8776     1.8776 C.3          1    LIG   0.0000
   5 O5           1.3135     1.9610     3.1780 O.3          1    LIG   0.0000
   6 C6           3.2691     1.2740     1.9669 C.ar         1    LIG   0.0000
   7 C7           4.2883     1.7878     1.1717 C.ar         1    LIG   0.0000
   8 C8           5.5625     1.2358     1.2535 C.ar         1    LIG   0.0000
   9 C9           5.8029     0.1791     2.1256 C.ar         1    LIG   0.0000
  10 Br10         7.5998    -0.5967     2.2400 Br           1    LIG   0.0000
  11 C11          4.7832    -0.3352     2.9204 C.ar         1    LIG   0.0000
  12 C12          3.5097     0.2178     2.8385 C.ar         1    LIG   0.0000
  13 H            1.9363     2.7934     1.4803 H            1    LIG   0.0000
  14 H            0.3196     1.0128    -2.2789 H            1    LIG   0.0000
  15 H            0.0001    -0.1638    -1.1925 H            1    LIG   0.0000
  16 H           -0.7049     1.3013    -1.0405 H            1    LIG   0.0000
  17 H            2.1246     0.8115    -0.7388 H            1    LIG   0.0000
  18 H            1.4196     2.2766    -0.5868 H            1    LIG   0.0000
  19 H            0.0377     1.1925     1.1925 H            1    LIG   0.0000
  20 H            1.1925     0.0377     1.1925 H            1    LIG   0.0000
  21 H            0.3976     2.3583     3.1193 H            1    LIG   0.0000
  22 H            4.1066     2.5471     0.5469 H            1    LIG   0.0000
  23 H            6.3032     1.5974     0.6873 H            1    LIG   0.0000
  24 H            4.9643    -1.0953     3.5445 H            1    LIG   0.0000
  25 H            2.7690    -0.1433     3.4051 H            1    LIG   0.0000
@<TRIPOS>BOND
   1        1        2 1
   2        2        3 1
   3        3        4 1
   4        4        5 1
   5        4        6 1
   6        6        7 ar
   7        7        8 ar
   8        8        9 ar
   9        9       10 1
  10        9       11 ar
  11       11       12 ar
  12       12        6 ar
  13        4       13 1
  14        1       14 1
  15        1       15 1
  16        1       16 1
  17        2       17 1
  18        2       18 1
  19        3       19 1
  20        3       20 1
  21        5       21 1
  22        7       22 1
  23        8       23 1
  24       11       24 1
  25       12       25 1

@<TRIPOS>MOLECULE

  25   25
SMALL
USER_CHARGES
@<TRIPOS>ATOM
   1 C1           0.1272     0.8203    -1.3167 C.3          1    LIG   0.0000
   2 C2           1.2925     1.2925    -0.4626 C.3          1    LIG   0.0000
   3 C3           1.0000     1.0000     1.0000 C.3          1    LIG   0.0000
   4 C4           1.8776     1.8776     1.8776 C.3          1    LIG   0.0000
   5 O5           1.3135     1.9610     3.1780 O.3          1    LIG   0.0000
   6 C6           3.2691     1.2740     1.9669 C.ar         1    LIG   0.0000
   7 C7           3.4565     0.0930     2.6776 C.ar         1    LIG   0.0000
   8 C8           4.7302    -0.4602     2.7592 C.ar         1    LIG   0.0000
   9 C9           5.7992     0.1717     2.1324 C.ar         1    LIG   0.0000
  10 Br10         7.5934    -0.6103     2.2479 Br           1    LIG   0.0000
  11 C11          5.6118     1.3534     1.4222 C.ar         1    LIG   0.0000
  12 C12          4.3378     1.9053     1.3405 C.ar         1    LIG   0.0000
  13 H            1.9363     2.7934     1.4803 H            1    LIG   0.0000
  14 H            0.3196     1.0128    -2.2789 H            1    LIG   0.0000
  15 H            0.0001    -0.1638    -1.1925 H            1    LIG   0.0000
  16 H           -0.7049     1.3013    -1.0405 H            1    LIG   0.0000
  17 H            2.1246     0.8115    -0.7388 H            1    LIG   0.0000
  18 H            1.4196     2.2766    -0.5868 H            1    LIG   0.0000
  19 H            0.0377     1.1925     1.1925 H            1    LIG   0.0000
  20 H            1.1925     0.0377     1.1925 H            1    LIG   0.0000
  21 H            0.3976     2.3583     3.1193 H            1    LIG   0.0000
  22 H            2.6825    -0.3543     3.1258 H            1    LIG   0.0000
  23 H            4.8769    -1.3093     3.2667 H            1    LIG   0.0000
  24 H            6.3858     1.8015     0.9748 H            1    LIG   0.0000
  25 H            4.1909     2.7541     0.8325 H            1    LIG   0.0000
@<TRIPOS>BOND
   1        1        2 1
   2        2        3 1
   3        3        4 1
   4        4        5 1
   5        4        6 1
   6        6        7 ar
   7        7        8 ar
   8        8        9 ar
   9        9       10 1
  10        9       11 ar
  11       11       12 ar
  12       12        6 ar
  13        4       13 1
  14        1       14 1
  15        1       15 1
  16        1       16 1
  17        2       17 1
  18        2       18 1
  19        3       19 1
  20        3       20 1
  21        5       21 1
  22        7       22 1
  23        8       23 1
  24       11       24 1
  25       12       25 1

