@<TRIPOS>MOLECULE
*****
 25 25 0 0 0
SMALL
USER_CHARGES

@<TRIPOS>ATOM
      1 C1          0.1272    0.8203   -1.3167 C.3     1  LIG1        0.0000
      2 C2          1.2925    1.2925   -0.4626 C.3     1  LIG1        0.0000
      3 C3          1.0000    1.0000    1.0000 C.3     1  LIG1        0.0000
      4 C4          1.8776    1.8776    1.8776 C.3     1  LIG1        0.0000
      5 O5          1.6043    1.6043    3.2440 O.3     1  LIG1        0.0000
      6 C6          3.3396    1.5852    1.5852 C.ar    1  LIG1        0.0000
      7 C7          3.8315    1.7837    0.2992 C.ar    1  LIG1        0.0000
      8 C8          5.1701    1.5166    0.0312 C.ar    1  LIG1        0.0000
      9 C9          5.9993    1.0545    1.0479 C.ar    1  LIG1        0.0000
     10 Br10        7.8858    0.6796    0.6682 Br      1  LIG1        0.0000
     11 C11         5.5071    0.8552    2.3340 C.ar    1  LIG1        0.0000
     12 C12         4.1687    1.1233    2.6012 C.ar    1  LIG1        0.0000
     13 H           1.6851    2.8398    1.6851 H       1  LIG1        0.0000
     14 H           0.3196    1.0128   -2.2789 H       1  LIG1        0.0000
     15 H           0.0001   -0.1638   -1.1925 H       1  LIG1        0.0000
     16 H          -0.7049    1.3013   -1.0405 H       1  LIG1        0.0000
     17 H           2.1246    0.8115   -0.7388 H       1  LIG1        0.0000
     18 H           1.4196    2.2766   -0.5868 H       1  LIG1        0.0000
     19 H           0.0377    1.1925    1.1925 H       1  LIG1        0.0000
     20 H           1.1925    0.0377    1.1925 H       1  LIG1        0.0000
     21 H           0.6420    1.7967    3.4364 H       1  LIG1        0.0000
     22 H           3.2282    2.1155   -0.4261 H       1  LIG1        0.0000
     23 H           5.5350    1.6563   -0.8893 H       1  LIG1        0.0000
     24 H           6.1098    0.5224    3.0592 H       1  LIG1        0.0000
     25 H           3.8037    0.9842    3.5218 H       1  LIG1        0.0000
@<TRIPOS>BOND
     1     1     2    1
     2     2     3    1
     3     3     4    1
     4     4     5    1
     5     4     6    1
     6     6     7   ar
     7     7     8   ar
     8     8     9   ar
     9     9    10    1
    10     9    11   ar
    11    11    12   ar
    12    12     6   ar
    13     4    13    1
    14     1    14    1
    15     1    15    1
    16     1    16    1
    17     2    17    1
    18     2    18    1
    19     3    19    1
    20     3    20    1
    21     5    21    1
    22     7    22    1
    23     8    23    1
    24    11    24    1
    25    12    25    1
