@<TRIPOS>MOLECULE
*****
 25 25 0 0 0
SMALL
USER_CHARGES

@<TRIPOS>ATOM
      1 C1          0.8203    0.1272   -1.3167 C.3     1  LIG1        0.0000
      2 C2          1.2925    1.2925   -0.4626 C.3     1  LIG1        0.0000
      3 C3          1.0000    1.0000    1.0000 C.3     1  LIG1        0.0000
      4 C4          1.8776    1.8776    1.8776 C.3     1  LIG1        0.0000
      5 O5          1.3135    1.9610    3.1780 O.3     1  LIG1        0.0000
      6 C6          3.2691    1.2740    1.9669 C.ar    1  LIG1        0.0000
      7 C7          3.6813    0.3630    0.9998 C.ar    1  LIG1        0.0000
      8 C8          4.9554   -0.1895    1.0809 C.ar    1  LIG1        0.0000
      9 C9          5.8002    0.1728    2.1250 C.ar    1  LIG1        0.0000
     10 Br10        7.5958   -0.6064    2.2368 Br      1  LIG1        0.0000
     11 C11         5.3875    1.0834    3.0926 C.ar    1  LIG1        0.0000
     12 C12         4.1138    1.6359    3.0103 C.ar    1  LIG1        0.0000
     13 H           1.9363    2.7934    1.4803 H       1  LIG1        0.0000
     14 H           1.0128    0.3196   -2.2789 H       1  LIG1        0.0000
     15 H           1.3013   -0.7049   -1.0405 H       1  LIG1        0.0000
     16 H          -0.1638    0.0001   -1.1925 H       1  LIG1        0.0000
     17 H           2.2766    1.4196   -0.5868 H       1  LIG1        0.0000
     18 H           0.8115    2.1246   -0.7388 H       1  LIG1        0.0000
     19 H           0.0377    1.1925    1.1925 H       1  LIG1        0.0000
     20 H           1.1925    0.0377    1.1925 H       1  LIG1        0.0000
     21 H           0.3976    2.3583    3.1193 H       1  LIG1        0.0000
     22 H           3.0672    0.1075    0.2531 H       1  LIG1        0.0000
     23 H           5.2629   -0.8449    0.3911 H       1  LIG1        0.0000
     24 H           6.0009    1.3383    3.8401 H       1  LIG1        0.0000
     25 H           3.8063    2.2917    3.6997 H       1  LIG1        0.0000
@<TRIPOS>BOND
     1     1     2    1
     2     2     3    1
     3     3     4    1
     4     4     5    1
     5     4     6    1
     6     6     7   ar
     7     7     8   ar
     8     8     9   ar
     9     9    10    1
    10     9    11   ar
    11    11    12   ar
    12    12     6   ar
    13     4    13    1
    14     1    14    1
    15     1    15    1
    16     1    16    1
    17     2    17    1
    18     2    18    1
    19     3    19    1
    20     3    20    1
    21     5    21    1
    22     7    22    1
    23     8    23    1
    24    11    24    1
    25    12    25    1
