@<TRIPOS>MOLECULE
*****
 25 25 0 0 0
SMALL
USER_CHARGES

@<TRIPOS>ATOM
      1 C1          0.4150    0.4150   -1.3402 C.3     1  LIG1        0.0000
      2 C2          1.2925    1.2925   -0.4626 C.3     1  LIG1        0.0000
      3 C3          1.0000    1.0000    1.0000 C.3     1  LIG1        0.0000
      4 C4          1.8776    1.8776    1.8776 C.3     1  LIG1        0.0000
      5 O5          1.6043    1.6043    3.2440 O.3     1  LIG1        0.0000
      6 C6          3.3396    1.5852    1.5852 C.ar    1  LIG1        0.0000
      7 C7          3.8836    0.3663    1.9771 C.ar    1  LIG1        0.0000
      8 C8          5.2220    0.0980    1.7092 C.ar    1  LIG1        0.0000
      9 C9          5.9996    1.0483    1.0555 C.ar    1  LIG1        0.0000
     10 Br10        7.8854    0.6676    0.6780 Br      1  LIG1        0.0000
     11 C11         5.4556    2.2677    0.6641 C.ar    1  LIG1        0.0000
     12 C12         4.1171    2.5348    0.9318 C.ar    1  LIG1        0.0000
     13 H           1.6851    2.8398    1.6851 H       1  LIG1        0.0000
     14 H           0.6074    0.6074   -2.3024 H       1  LIG1        0.0000
     15 H           0.6074   -0.5473   -1.1477 H       1  LIG1        0.0000
     16 H          -0.5473    0.6074   -1.1477 H       1  LIG1        0.0000
     17 H           2.2548    1.1001   -0.6551 H       1  LIG1        0.0000
     18 H           1.1001    2.2548   -0.6551 H       1  LIG1        0.0000
     19 H           0.0377    1.1925    1.1925 H       1  LIG1        0.0000
     20 H           1.1925    0.0377    1.1925 H       1  LIG1        0.0000
     21 H           0.6420    1.7967    3.4364 H       1  LIG1        0.0000
     22 H           3.3176   -0.3109    2.4473 H       1  LIG1        0.0000
     23 H           5.6237   -0.7750    1.9856 H       1  LIG1        0.0000
     24 H           6.0216    2.9455    0.1950 H       1  LIG1        0.0000
     25 H           3.7150    3.4075    0.6550 H       1  LIG1        0.0000
@<TRIPOS>BOND
     1     1     2    1
     2     2     3    1
     3     3     4    1
     4     4     5    1
     5     4     6    1
     6     6     7   ar
     7     7     8   ar
     8     8     9   ar
     9     9    10    1
    10     9    11   ar
    11    11    12   ar
    12    12     6   ar
    13     4    13    1
    14     1    14    1
    15     1    15    1
    16     1    16    1
    17     2    17    1
    18     2    18    1
    19     3    19    1
    20     3    20    1
    21     5    21    1
    22     7    22    1
    23     8    23    1
    24    11    24    1
    25    12    25    1
