@<TRIPOS>MOLECULE

  53   57
SMALL
USER_CHARGES
@<TRIPOS>ATOM
   1 C1          -6.2884     4.0165    -1.3820 C.3          1    LIG   0.0000
   2 C2          -5.2481     3.2728    -0.5585 C.2          1    LIG   0.0000
   3 N3          -4.2564     2.5668    -1.0423 N.2          1    LIG   0.0000
   4 C4          -3.5947     2.0935     0.0458 C.2          1    LIG   0.0000
   5 C5          -2.3539     1.2168     0.0289 C.3          1    LIG   0.0000
   6 O6          -1.1948     2.0371     0.0243 O.3          1    LIG   0.0000
   7 C7          -0.0164     1.3781     0.0095 C.ar         1    LIG   0.0000
   8 C8           1.1713     2.1017     0.0040 C.ar         1    LIG   0.0000
   9 C9           2.3819     1.4172    -0.0109 C.ar         1    LIG   0.0000
  10 C10          2.3938     0.0256    -0.0213 C.ar         1    LIG   0.0000
  11 C11          3.6615    -0.6793    -0.0364 C.2          1    LIG   0.0000
  12 O12          4.6577    -0.1148    -0.3954 O.2          1    LIG   0.0000
  13 N13          3.7214    -1.9896     0.3593 N.am         1    LIG   0.0000
  14 N14          4.9000    -2.6449     0.3453 N.pl3        1    LIG   0.0000
  15 C15          5.2520    -3.3126    -0.7960 C.2          1    LIG   0.0000
  16 N16          6.3834    -3.9775    -0.8867 N.2          1    LIG   0.0000
  17 C17          7.1762    -3.9617     0.2209 C.2          1    LIG   0.0000
  18 S18          8.6762    -4.7504     0.3336 S.3          1    LIG   0.0000
  19 C19          9.0476    -4.2898     1.9284 C.2          1    LIG   0.0000
  20 C20         10.3001    -4.6645     2.7032 C.3          1    LIG   0.0000
  21 C21          8.0049    -3.5289     2.3646 C.2          1    LIG   0.0000
  22 C22          8.0282    -2.9820     3.7075 C.ar         1    LIG   0.0000
  23 C23          8.5906    -1.7295     3.9309 C.ar         1    LIG   0.0000
  24 C24          8.6094    -1.2129     5.2221 C.ar         1    LIG   0.0000
  25 C25          8.0692    -1.9470     6.2737 C.ar         1    LIG   0.0000
  26 C26          7.5085    -3.1986     6.0411 C.ar         1    LIG   0.0000
  27 C27          7.4863    -3.7230     4.7526 C.ar         1    LIG   0.0000
  28 C28          6.9615    -3.3464     1.4105 C.2          1    LIG   0.0000
  29 C29          5.7220    -2.6469     1.4401 C.2          1    LIG   0.0000
  30 O30          5.3469    -2.0311     2.4260 O.2          1    LIG   0.0000
  31 C31          1.2008    -0.6892    -0.0164 C.ar         1    LIG   0.0000
  32 C32         -0.0147    -0.0125    -0.0002 C.ar         1    LIG   0.0000
  33 N33         -4.2140     2.5303     1.1131 N.2          1    LIG   0.0000
  34 O34         -5.2029     3.2323     0.7510 O.2          1    LIG   0.0000
  35 H           -6.0978     3.8874    -2.3551 H            1    LIG   0.0000
  36 H           -7.1983     3.6597    -1.1704 H            1    LIG   0.0000
  37 H           -6.2532     4.9913    -1.1619 H            1    LIG   0.0000
  38 H           -2.3465     0.6339     0.8415 H            1    LIG   0.0000
  39 H           -2.3609     0.6450    -0.7914 H            1    LIG   0.0000
  40 H            1.1551     3.1015     0.0106 H            1    LIG   0.0000
  41 H            3.2435     1.9248    -0.0142 H            1    LIG   0.0000
  42 H            2.8912    -2.4600     0.6585 H            1    LIG   0.0000
  43 H            4.6333    -3.2945    -1.5814 H            1    LIG   0.0000
  44 H           10.2605    -4.2597     3.6168 H            1    LIG   0.0000
  45 H           10.3583    -5.6597     2.7818 H            1    LIG   0.0000
  46 H           11.1058    -4.3205     2.2209 H            1    LIG   0.0000
  47 H            8.9772    -1.2062     3.1714 H            1    LIG   0.0000
  48 H            9.0112    -0.3136     5.3949 H            1    LIG   0.0000
  49 H            8.0841    -1.5729     7.2010 H            1    LIG   0.0000
  50 H            7.1213    -3.7217     6.8004 H            1    LIG   0.0000
  51 H            7.0852    -4.6225     4.5797 H            1    LIG   0.0000
  52 H            1.2167    -1.6890    -0.0244 H            1    LIG   0.0000
  53 H           -0.8764    -0.5199     0.0045 H            1    LIG   0.0000
@<TRIPOS>BOND
   1        1        2 1
   2        2        3 2
   3        3        4 1
   4        4        5 1
   5        5        6 1
   6        6        7 1
   7        7        8 ar
   8        8        9 ar
   9        9       10 ar
  10       10       11 1
  11       11       12 2
  12       11       13 am
  13       13       14 1
  14       14       15 1
  15       15       16 2
  16       16       17 1
  17       17       18 1
  18       18       19 1
  19       19       20 1
  20       19       21 2
  21       21       22 1
  22       22       23 ar
  23       23       24 ar
  24       24       25 ar
  25       25       26 ar
  26       26       27 ar
  27       27       22 ar
  28       21       28 1
  29       28       17 2
  30       28       29 1
  31       29       14 1
  32       29       30 2
  33       10       31 ar
  34       31       32 ar
  35       32        7 ar
  36        4       33 2
  37       33       34 1
  38       34        2 1
  39        1       35 1
  40        1       36 1
  41        1       37 1
  42        5       38 1
  43        5       39 1
  44        8       40 1
  45        9       41 1
  46       13       42 1
  47       15       43 1
  48       20       44 1
  49       20       45 1
  50       20       46 1
  51       23       47 1
  52       24       48 1
  53       25       49 1
  54       26       50 1
  55       27       51 1
  56       31       52 1
  57       32       53 1

@<TRIPOS>MOLECULE

  53   57
SMALL
USER_CHARGES
@<TRIPOS>ATOM
   1 C1          -2.3999    -1.4939    -4.2089 C.3          1    LIG   0.0000
   2 C2          -2.6472    -0.4169    -3.1639 C.2          1    LIG   0.0000
   3 N3          -2.1557    -0.4066    -1.9497 N.2          1    LIG   0.0000
   4 C4          -2.6361     0.7308    -1.3827 C.2          1    LIG   0.0000
   5 C5          -2.3539     1.2168     0.0289 C.3          1    LIG   0.0000
   6 O6          -1.1948     2.0371     0.0243 O.3          1    LIG   0.0000
   7 C7          -0.0164     1.3781     0.0095 C.ar         1    LIG   0.0000
   8 C8           1.1713     2.1017     0.0040 C.ar         1    LIG   0.0000
   9 C9           2.3819     1.4172    -0.0109 C.ar         1    LIG   0.0000
  10 C10          2.3938     0.0256    -0.0213 C.ar         1    LIG   0.0000
  11 C11          3.6615    -0.6793    -0.0364 C.2          1    LIG   0.0000
  12 O12          4.6577    -0.1148    -0.3954 O.2          1    LIG   0.0000
  13 N13          3.7214    -1.9896     0.3593 N.am         1    LIG   0.0000
  14 N14          4.9000    -2.6449     0.3453 N.pl3        1    LIG   0.0000
  15 C15          5.2520    -3.3126    -0.7960 C.2          1    LIG   0.0000
  16 N16          6.3834    -3.9775    -0.8867 N.2          1    LIG   0.0000
  17 C17          7.1762    -3.9617     0.2209 C.2          1    LIG   0.0000
  18 S18          8.6762    -4.7504     0.3336 S.3          1    LIG   0.0000
  19 C19          9.0476    -4.2898     1.9284 C.2          1    LIG   0.0000
  20 C20         10.3001    -4.6645     2.7032 C.3          1    LIG   0.0000
  21 C21          8.0049    -3.5289     2.3646 C.2          1    LIG   0.0000
  22 C22          8.0282    -2.9820     3.7075 C.ar         1    LIG   0.0000
  23 C23          8.5906    -1.7295     3.9309 C.ar         1    LIG   0.0000
  24 C24          8.6094    -1.2129     5.2221 C.ar         1    LIG   0.0000
  25 C25          8.0692    -1.9470     6.2737 C.ar         1    LIG   0.0000
  26 C26          7.5085    -3.1986     6.0411 C.ar         1    LIG   0.0000
  27 C27          7.4863    -3.7230     4.7526 C.ar         1    LIG   0.0000
  28 C28          6.9615    -3.3464     1.4105 C.2          1    LIG   0.0000
  29 C29          5.7220    -2.6469     1.4401 C.2          1    LIG   0.0000
  30 O30          5.3469    -2.0311     2.4260 O.2          1    LIG   0.0000
  31 C31          1.2008    -0.6892    -0.0164 C.ar         1    LIG   0.0000
  32 C32         -0.0147    -0.0125    -0.0002 C.ar         1    LIG   0.0000
  33 N33         -3.3829     1.3370    -2.2705 N.2          1    LIG   0.0000
  34 O34         -3.3911     0.6493    -3.3330 O.2          1    LIG   0.0000
  35 H           -1.7983    -2.1961    -3.8280 H            1    LIG   0.0000
  36 H           -3.2708    -1.9086    -4.4728 H            1    LIG   0.0000
  37 H           -1.9680    -1.0853    -5.0129 H            1    LIG   0.0000
  38 H           -3.1349     1.7452     0.3619 H            1    LIG   0.0000
  39 H           -2.2035     0.4306     0.6283 H            1    LIG   0.0000
  40 H            1.1551     3.1015     0.0106 H            1    LIG   0.0000
  41 H            3.2435     1.9248    -0.0142 H            1    LIG   0.0000
  42 H            2.8912    -2.4600     0.6585 H            1    LIG   0.0000
  43 H            4.6333    -3.2945    -1.5814 H            1    LIG   0.0000
  44 H           10.2605    -4.2597     3.6168 H            1    LIG   0.0000
  45 H           10.3583    -5.6597     2.7818 H            1    LIG   0.0000
  46 H           11.1058    -4.3205     2.2209 H            1    LIG   0.0000
  47 H            8.9772    -1.2062     3.1714 H            1    LIG   0.0000
  48 H            9.0112    -0.3136     5.3949 H            1    LIG   0.0000
  49 H            8.0841    -1.5729     7.2010 H            1    LIG   0.0000
  50 H            7.1213    -3.7217     6.8004 H            1    LIG   0.0000
  51 H            7.0852    -4.6225     4.5797 H            1    LIG   0.0000
  52 H            1.2167    -1.6890    -0.0244 H            1    LIG   0.0000
  53 H           -0.8764    -0.5199     0.0045 H            1    LIG   0.0000
@<TRIPOS>BOND
   1        1        2 1
   2        2        3 2
   3        3        4 1
   4        4        5 1
   5        5        6 1
   6        6        7 1
   7        7        8 ar
   8        8        9 ar
   9        9       10 ar
  10       10       11 1
  11       11       12 2
  12       11       13 am
  13       13       14 1
  14       14       15 1
  15       15       16 2
  16       16       17 1
  17       17       18 1
  18       18       19 1
  19       19       20 1
  20       19       21 2
  21       21       22 1
  22       22       23 ar
  23       23       24 ar
  24       24       25 ar
  25       25       26 ar
  26       26       27 ar
  27       27       22 ar
  28       21       28 1
  29       28       17 2
  30       28       29 1
  31       29       14 1
  32       29       30 2
  33       10       31 ar
  34       31       32 ar
  35       32        7 ar
  36        4       33 2
  37       33       34 1
  38       34        2 1
  39        1       35 1
  40        1       36 1
  41        1       37 1
  42        5       38 1
  43        5       39 1
  44        8       40 1
  45        9       41 1
  46       13       42 1
  47       15       43 1
  48       20       44 1
  49       20       45 1
  50       20       46 1
  51       23       47 1
  52       24       48 1
  53       25       49 1
  54       26       50 1
  55       27       51 1
  56       31       52 1
  57       32       53 1

@<TRIPOS>MOLECULE

  53   57
SMALL
USER_CHARGES
@<TRIPOS>ATOM
   1 C1          -3.9874     0.7996     4.7689 C.3          1    LIG   0.0000
   2 C2          -3.3026     0.5461     3.4347 C.2          1    LIG   0.0000
   3 N3          -3.3660     1.3278     2.3855 N.2          1    LIG   0.0000
   4 C4          -2.6112     0.7116     1.4385 C.2          1    LIG   0.0000
   5 C5          -2.3539     1.2168     0.0289 C.3          1    LIG   0.0000
   6 O6          -1.1948     2.0371     0.0243 O.3          1    LIG   0.0000
   7 C7          -0.0164     1.3781     0.0095 C.ar         1    LIG   0.0000
   8 C8           1.1713     2.1017     0.0040 C.ar         1    LIG   0.0000
   9 C9           2.3819     1.4172    -0.0109 C.ar         1    LIG   0.0000
  10 C10          2.3938     0.0256    -0.0213 C.ar         1    LIG   0.0000
  11 C11          3.6615    -0.6793    -0.0364 C.2          1    LIG   0.0000
  12 O12          4.6577    -0.1148    -0.3954 O.2          1    LIG   0.0000
  13 N13          3.7214    -1.9896     0.3593 N.am         1    LIG   0.0000
  14 N14          4.9000    -2.6449     0.3453 N.pl3        1    LIG   0.0000
  15 C15          5.2520    -3.3126    -0.7960 C.2          1    LIG   0.0000
  16 N16          6.3834    -3.9775    -0.8867 N.2          1    LIG   0.0000
  17 C17          7.1762    -3.9617     0.2209 C.2          1    LIG   0.0000
  18 S18          8.6762    -4.7504     0.3336 S.3          1    LIG   0.0000
  19 C19          9.0476    -4.2898     1.9284 C.2          1    LIG   0.0000
  20 C20         10.3001    -4.6645     2.7032 C.3          1    LIG   0.0000
  21 C21          8.0049    -3.5289     2.3646 C.2          1    LIG   0.0000
  22 C22          8.0282    -2.9820     3.7075 C.ar         1    LIG   0.0000
  23 C23          8.5906    -1.7295     3.9309 C.ar         1    LIG   0.0000
  24 C24          8.6094    -1.2129     5.2221 C.ar         1    LIG   0.0000
  25 C25          8.0692    -1.9470     6.2737 C.ar         1    LIG   0.0000
  26 C26          7.5085    -3.1986     6.0411 C.ar         1    LIG   0.0000
  27 C27          7.4863    -3.7230     4.7526 C.ar         1    LIG   0.0000
  28 C28          6.9615    -3.3464     1.4105 C.2          1    LIG   0.0000
  29 C29          5.7220    -2.6469     1.4401 C.2          1    LIG   0.0000
  30 O30          5.3469    -2.0311     2.4260 O.2          1    LIG   0.0000
  31 C31          1.2008    -0.6892    -0.0164 C.ar         1    LIG   0.0000
  32 C32         -0.0147    -0.0125    -0.0002 C.ar         1    LIG   0.0000
  33 N33         -2.1409    -0.3942     1.9577 N.2          1    LIG   0.0000
  34 O34         -2.5567    -0.4934     3.1490 O.2          1    LIG   0.0000
  35 H           -4.4939     1.6608     4.7253 H            1    LIG   0.0000
  36 H           -4.6198     0.0506     4.9666 H            1    LIG   0.0000
  37 H           -3.2988     0.8541     5.4920 H            1    LIG   0.0000
  38 H           -2.2142     0.4389    -0.5837 H            1    LIG   0.0000
  39 H           -3.1406     1.7496    -0.2830 H            1    LIG   0.0000
  40 H            1.1551     3.1015     0.0106 H            1    LIG   0.0000
  41 H            3.2435     1.9248    -0.0142 H            1    LIG   0.0000
  42 H            2.8912    -2.4600     0.6585 H            1    LIG   0.0000
  43 H            4.6333    -3.2945    -1.5814 H            1    LIG   0.0000
  44 H           10.2605    -4.2597     3.6168 H            1    LIG   0.0000
  45 H           10.3583    -5.6597     2.7818 H            1    LIG   0.0000
  46 H           11.1058    -4.3205     2.2209 H            1    LIG   0.0000
  47 H            8.9772    -1.2062     3.1714 H            1    LIG   0.0000
  48 H            9.0112    -0.3136     5.3949 H            1    LIG   0.0000
  49 H            8.0841    -1.5729     7.2010 H            1    LIG   0.0000
  50 H            7.1213    -3.7217     6.8004 H            1    LIG   0.0000
  51 H            7.0852    -4.6225     4.5797 H            1    LIG   0.0000
  52 H            1.2167    -1.6890    -0.0244 H            1    LIG   0.0000
  53 H           -0.8764    -0.5199     0.0045 H            1    LIG   0.0000
@<TRIPOS>BOND
   1        1        2 1
   2        2        3 2
   3        3        4 1
   4        4        5 1
   5        5        6 1
   6        6        7 1
   7        7        8 ar
   8        8        9 ar
   9        9       10 ar
  10       10       11 1
  11       11       12 2
  12       11       13 am
  13       13       14 1
  14       14       15 1
  15       15       16 2
  16       16       17 1
  17       17       18 1
  18       18       19 1
  19       19       20 1
  20       19       21 2
  21       21       22 1
  22       22       23 ar
  23       23       24 ar
  24       24       25 ar
  25       25       26 ar
  26       26       27 ar
  27       27       22 ar
  28       21       28 1
  29       28       17 2
  30       28       29 1
  31       29       14 1
  32       29       30 2
  33       10       31 ar
  34       31       32 ar
  35       32        7 ar
  36        4       33 2
  37       33       34 1
  38       34        2 1
  39        1       35 1
  40        1       36 1
  41        1       37 1
  42        5       38 1
  43        5       39 1
  44        8       40 1
  45        9       41 1
  46       13       42 1
  47       15       43 1
  48       20       44 1
  49       20       45 1
  50       20       46 1
  51       23       47 1
  52       24       48 1
  53       25       49 1
  54       26       50 1
  55       27       51 1
  56       31       52 1
  57       32       53 1

@<TRIPOS>MOLECULE

  53   57
SMALL
USER_CHARGES
@<TRIPOS>ATOM
   1 C1           1.2637     4.8672     4.2418 C.3          1    LIG   0.0000
   2 C2           0.1967     4.5251     3.2133 C.2          1    LIG   0.0000
   3 N3           0.4219     4.1141     1.9901 N.2          1    LIG   0.0000
   4 C4          -0.8094     3.9337     1.4447 C.2          1    LIG   0.0000
   5 C5          -1.1028     3.4541     0.0332 C.3          1    LIG   0.0000
   6 O6          -1.1948     2.0371     0.0243 O.3          1    LIG   0.0000
   7 C7          -0.0164     1.3781     0.0095 C.ar         1    LIG   0.0000
   8 C8           1.1713     2.1017     0.0040 C.ar         1    LIG   0.0000
   9 C9           2.3819     1.4172    -0.0109 C.ar         1    LIG   0.0000
  10 C10          2.3938     0.0256    -0.0213 C.ar         1    LIG   0.0000
  11 C11          3.6615    -0.6793    -0.0364 C.2          1    LIG   0.0000
  12 O12          4.6577    -0.1148    -0.3954 O.2          1    LIG   0.0000
  13 N13          3.7214    -1.9896     0.3593 N.am         1    LIG   0.0000
  14 N14          4.9000    -2.6449     0.3453 N.pl3        1    LIG   0.0000
  15 C15          5.2520    -3.3126    -0.7960 C.2          1    LIG   0.0000
  16 N16          6.3834    -3.9775    -0.8867 N.2          1    LIG   0.0000
  17 C17          7.1762    -3.9617     0.2209 C.2          1    LIG   0.0000
  18 S18          8.6762    -4.7504     0.3336 S.3          1    LIG   0.0000
  19 C19          9.0476    -4.2898     1.9284 C.2          1    LIG   0.0000
  20 C20         10.3001    -4.6645     2.7032 C.3          1    LIG   0.0000
  21 C21          8.0049    -3.5289     2.3646 C.2          1    LIG   0.0000
  22 C22          8.0282    -2.9820     3.7075 C.ar         1    LIG   0.0000
  23 C23          8.5906    -1.7295     3.9309 C.ar         1    LIG   0.0000
  24 C24          8.6094    -1.2129     5.2221 C.ar         1    LIG   0.0000
  25 C25          8.0692    -1.9470     6.2737 C.ar         1    LIG   0.0000
  26 C26          7.5085    -3.1986     6.0411 C.ar         1    LIG   0.0000
  27 C27          7.4863    -3.7230     4.7526 C.ar         1    LIG   0.0000
  28 C28          6.9615    -3.3464     1.4105 C.2          1    LIG   0.0000
  29 C29          5.7220    -2.6469     1.4401 C.2          1    LIG   0.0000
  30 O30          5.3469    -2.0311     2.4260 O.2          1    LIG   0.0000
  31 C31          1.2008    -0.6892    -0.0164 C.ar         1    LIG   0.0000
  32 C32         -0.0147    -0.0125    -0.0002 C.ar         1    LIG   0.0000
  33 N33         -1.6996     4.2430     2.3532 N.2          1    LIG   0.0000
  34 O34         -1.0976     4.5986     3.4082 O.2          1    LIG   0.0000
  35 H            2.1694     4.7265     3.8418 H            1    LIG   0.0000
  36 H            1.1662     5.8233     4.5179 H            1    LIG   0.0000
  37 H            1.1571     4.2766     5.0417 H            1    LIG   0.0000
  38 H           -1.9681     3.8463    -0.2790 H            1    LIG   0.0000
  39 H           -0.3659     3.7441    -0.5774 H            1    LIG   0.0000
  40 H            1.1551     3.1015     0.0106 H            1    LIG   0.0000
  41 H            3.2435     1.9248    -0.0142 H            1    LIG   0.0000
  42 H            2.8912    -2.4600     0.6585 H            1    LIG   0.0000
  43 H            4.6333    -3.2945    -1.5814 H            1    LIG   0.0000
  44 H           10.2605    -4.2597     3.6168 H            1    LIG   0.0000
  45 H           10.3583    -5.6597     2.7818 H            1    LIG   0.0000
  46 H           11.1058    -4.3205     2.2209 H            1    LIG   0.0000
  47 H            8.9772    -1.2062     3.1714 H            1    LIG   0.0000
  48 H            9.0112    -0.3136     5.3949 H            1    LIG   0.0000
  49 H            8.0841    -1.5729     7.2010 H            1    LIG   0.0000
  50 H            7.1213    -3.7217     6.8004 H            1    LIG   0.0000
  51 H            7.0852    -4.6225     4.5797 H            1    LIG   0.0000
  52 H            1.2167    -1.6890    -0.0244 H            1    LIG   0.0000
  53 H           -0.8764    -0.5199     0.0045 H            1    LIG   0.0000
@<TRIPOS>BOND
   1        1        2 1
   2        2        3 2
   3        3        4 1
   4        4        5 1
   5        5        6 1
   6        6        7 1
   7        7        8 ar
   8        8        9 ar
   9        9       10 ar
  10       10       11 1
  11       11       12 2
  12       11       13 am
  13       13       14 1
  14       14       15 1
  15       15       16 2
  16       16       17 1
  17       17       18 1
  18       18       19 1
  19       19       20 1
  20       19       21 2
  21       21       22 1
  22       22       23 ar
  23       23       24 ar
  24       24       25 ar
  25       25       26 ar
  26       26       27 ar
  27       27       22 ar
  28       21       28 1
  29       28       17 2
  30       28       29 1
  31       29       14 1
  32       29       30 2
  33       10       31 ar
  34       31       32 ar
  35       32        7 ar
  36        4       33 2
  37       33       34 1
  38       34        2 1
  39        1       35 1
  40        1       36 1
  41        1       37 1
  42        5       38 1
  43        5       39 1
  44        8       40 1
  45        9       41 1
  46       13       42 1
  47       15       43 1
  48       20       44 1
  49       20       45 1
  50       20       46 1
  51       23       47 1
  52       24       48 1
  53       25       49 1
  54       26       50 1
  55       27       51 1
  56       31       52 1
  57       32       53 1

@<TRIPOS>MOLECULE

  53   57
SMALL
USER_CHARGES
@<TRIPOS>ATOM
   1 C1          -1.6935     5.1150    -4.6787 C.3          1    LIG   0.0000
   2 C2          -1.0935     4.6500    -3.3607 C.2          1    LIG   0.0000
   3 N3          -1.7724     4.2834    -2.3021 N.2          1    LIG   0.0000
   4 C4          -0.8342     3.9530    -1.3765 C.2          1    LIG   0.0000
   5 C5          -1.1028     3.4541     0.0332 C.3          1    LIG   0.0000
   6 O6          -1.1948     2.0371     0.0243 O.3          1    LIG   0.0000
   7 C7          -0.0164     1.3781     0.0095 C.ar         1    LIG   0.0000
   8 C8           1.1713     2.1017     0.0040 C.ar         1    LIG   0.0000
   9 C9           2.3819     1.4172    -0.0109 C.ar         1    LIG   0.0000
  10 C10          2.3938     0.0256    -0.0213 C.ar         1    LIG   0.0000
  11 C11          3.6615    -0.6793    -0.0364 C.2          1    LIG   0.0000
  12 O12          4.6577    -0.1148    -0.3954 O.2          1    LIG   0.0000
  13 N13          3.7214    -1.9896     0.3593 N.am         1    LIG   0.0000
  14 N14          4.9000    -2.6449     0.3453 N.pl3        1    LIG   0.0000
  15 C15          5.2520    -3.3126    -0.7960 C.2          1    LIG   0.0000
  16 N16          6.3834    -3.9775    -0.8867 N.2          1    LIG   0.0000
  17 C17          7.1762    -3.9617     0.2209 C.2          1    LIG   0.0000
  18 S18          8.6762    -4.7504     0.3336 S.3          1    LIG   0.0000
  19 C19          9.0476    -4.2898     1.9284 C.2          1    LIG   0.0000
  20 C20         10.3001    -4.6645     2.7032 C.3          1    LIG   0.0000
  21 C21          8.0049    -3.5289     2.3646 C.2          1    LIG   0.0000
  22 C22          8.0282    -2.9820     3.7075 C.ar         1    LIG   0.0000
  23 C23          8.5906    -1.7295     3.9309 C.ar         1    LIG   0.0000
  24 C24          8.6094    -1.2129     5.2221 C.ar         1    LIG   0.0000
  25 C25          8.0692    -1.9470     6.2737 C.ar         1    LIG   0.0000
  26 C26          7.5085    -3.1986     6.0411 C.ar         1    LIG   0.0000
  27 C27          7.4863    -3.7230     4.7526 C.ar         1    LIG   0.0000
  28 C28          6.9615    -3.3464     1.4105 C.2          1    LIG   0.0000
  29 C29          5.7220    -2.6469     1.4401 C.2          1    LIG   0.0000
  30 O30          5.3469    -2.0311     2.4260 O.2          1    LIG   0.0000
  31 C31          1.2008    -0.6892    -0.0164 C.ar         1    LIG   0.0000
  32 C32         -0.0147    -0.0125    -0.0002 C.ar         1    LIG   0.0000
  33 N33          0.3440     4.1369    -1.9165 N.2          1    LIG   0.0000
  34 O34          0.1879     4.5558    -3.1006 O.2          1    LIG   0.0000
  35 H           -2.6913     5.0950    -4.6161 H            1    LIG   0.0000
  36 H           -1.3903     6.0480    -4.8722 H            1    LIG   0.0000
  37 H           -1.3934     4.5076    -5.4143 H            1    LIG   0.0000
  38 H           -0.3552     3.7358     0.6346 H            1    LIG   0.0000
  39 H           -1.9624     3.8419     0.3659 H            1    LIG   0.0000
  40 H            1.1551     3.1015     0.0106 H            1    LIG   0.0000
  41 H            3.2435     1.9248    -0.0142 H            1    LIG   0.0000
  42 H            2.8912    -2.4600     0.6585 H            1    LIG   0.0000
  43 H            4.6333    -3.2945    -1.5814 H            1    LIG   0.0000
  44 H           10.2605    -4.2597     3.6168 H            1    LIG   0.0000
  45 H           10.3583    -5.6597     2.7818 H            1    LIG   0.0000
  46 H           11.1058    -4.3205     2.2209 H            1    LIG   0.0000
  47 H            8.9772    -1.2062     3.1714 H            1    LIG   0.0000
  48 H            9.0112    -0.3136     5.3949 H            1    LIG   0.0000
  49 H            8.0841    -1.5729     7.2010 H            1    LIG   0.0000
  50 H            7.1213    -3.7217     6.8004 H            1    LIG   0.0000
  51 H            7.0852    -4.6225     4.5797 H            1    LIG   0.0000
  52 H            1.2167    -1.6890    -0.0244 H            1    LIG   0.0000
  53 H           -0.8764    -0.5199     0.0045 H            1    LIG   0.0000
@<TRIPOS>BOND
   1        1        2 1
   2        2        3 2
   3        3        4 1
   4        4        5 1
   5        5        6 1
   6        6        7 1
   7        7        8 ar
   8        8        9 ar
   9        9       10 ar
  10       10       11 1
  11       11       12 2
  12       11       13 am
  13       13       14 1
  14       14       15 1
  15       15       16 2
  16       16       17 1
  17       17       18 1
  18       18       19 1
  19       19       20 1
  20       19       21 2
  21       21       22 1
  22       22       23 ar
  23       23       24 ar
  24       24       25 ar
  25       25       26 ar
  26       26       27 ar
  27       27       22 ar
  28       21       28 1
  29       28       17 2
  30       28       29 1
  31       29       14 1
  32       29       30 2
  33       10       31 ar
  34       31       32 ar
  35       32        7 ar
  36        4       33 2
  37       33       34 1
  38       34        2 1
  39        1       35 1
  40        1       36 1
  41        1       37 1
  42        5       38 1
  43        5       39 1
  44        8       40 1
  45        9       41 1
  46       13       42 1
  47       15       43 1
  48       20       44 1
  49       20       45 1
  50       20       46 1
  51       23       47 1
  52       24       48 1
  53       25       49 1
  54       26       50 1
  55       27       51 1
  56       31       52 1
  57       32       53 1

@<TRIPOS>MOLECULE

  53   57
SMALL
USER_CHARGES
@<TRIPOS>ATOM
   1 C1          -6.2884     4.0165    -1.3820 C.3          1    LIG   0.0000
   2 C2          -5.2481     3.2728    -0.5585 C.2          1    LIG   0.0000
   3 N3          -4.2564     2.5668    -1.0423 N.2          1    LIG   0.0000
   4 C4          -3.5947     2.0935     0.0458 C.2          1    LIG   0.0000
   5 C5          -2.3539     1.2168     0.0289 C.3          1    LIG   0.0000
   6 O6          -1.1948     2.0371     0.0243 O.3          1    LIG   0.0000
   7 C7          -0.0164     1.3781     0.0095 C.ar         1    LIG   0.0000
   8 C8           1.1713     2.1017     0.0040 C.ar         1    LIG   0.0000
   9 C9           2.3819     1.4172    -0.0109 C.ar         1    LIG   0.0000
  10 C10          2.3938     0.0256    -0.0213 C.ar         1    LIG   0.0000
  11 C11          3.6615    -0.6793    -0.0364 C.2          1    LIG   0.0000
  12 O12          4.6577    -0.1148    -0.3954 O.2          1    LIG   0.0000
  13 N13          3.7214    -1.9896     0.3593 N.am         1    LIG   0.0000
  14 N14          4.9000    -2.6449     0.3453 N.pl3        1    LIG   0.0000
  15 C15          5.6734    -2.6032     1.4733 C.2          1    LIG   0.0000
  16 N16          6.8366    -3.2142     1.5367 N.2          1    LIG   0.0000
  17 C17          7.2213    -3.8847     0.4152 C.2          1    LIG   0.0000
  18 S18          8.6804    -4.7415     0.2674 S.3          1    LIG   0.0000
  19 C19          8.4562    -5.2840    -1.3292 C.2          1    LIG   0.0000
  20 C20          9.4210    -6.1423    -2.1303 C.3          1    LIG   0.0000
  21 C21          7.2520    -4.7954    -1.7387 C.2          1    LIG   0.0000
  22 C22          6.7754    -5.0903    -3.0762 C.ar         1    LIG   0.0000
  23 C23          6.0041    -6.2267    -3.2971 C.ar         1    LIG   0.0000
  24 C24          5.5519    -6.5022    -4.5832 C.ar         1    LIG   0.0000
  25 C25          5.8714    -5.6454    -5.6322 C.ar         1    LIG   0.0000
  26 C26          6.6430    -4.5110    -5.4021 C.ar         1    LIG   0.0000
  27 C27          7.1000    -4.2284    -4.1188 C.ar         1    LIG   0.0000
  28 C28          6.5639    -4.0150    -0.7640 C.2          1    LIG   0.0000
  29 C29          5.3154    -3.3311    -0.7641 C.2          1    LIG   0.0000
  30 O30          4.5766    -3.3275    -1.7368 O.2          1    LIG   0.0000
  31 C31          1.2008    -0.6892    -0.0164 C.ar         1    LIG   0.0000
  32 C32         -0.0147    -0.0125    -0.0002 C.ar         1    LIG   0.0000
  33 N33         -4.2140     2.5303     1.1131 N.2          1    LIG   0.0000
  34 O34         -5.2029     3.2323     0.7510 O.2          1    LIG   0.0000
  35 H           -6.0978     3.8874    -2.3551 H            1    LIG   0.0000
  36 H           -7.1983     3.6597    -1.1704 H            1    LIG   0.0000
  37 H           -6.2532     4.9913    -1.1619 H            1    LIG   0.0000
  38 H           -2.3465     0.6339     0.8415 H            1    LIG   0.0000
  39 H           -2.3609     0.6450    -0.7914 H            1    LIG   0.0000
  40 H            1.1551     3.1015     0.0106 H            1    LIG   0.0000
  41 H            3.2435     1.9248    -0.0142 H            1    LIG   0.0000
  42 H            2.8912    -2.4600     0.6585 H            1    LIG   0.0000
  43 H            5.3460    -2.0951     2.2700 H            1    LIG   0.0000
  44 H            9.0398    -6.3130    -3.0389 H            1    LIG   0.0000
  45 H           10.2956    -5.6657    -2.2199 H            1    LIG   0.0000
  46 H            9.5626    -7.0130    -1.6592 H            1    LIG   0.0000
  47 H            5.7773    -6.8388    -2.5395 H            1    LIG   0.0000
  48 H            4.9969    -7.3163    -4.7542 H            1    LIG   0.0000
  49 H            5.5448    -5.8461    -6.5558 H            1    LIG   0.0000
  50 H            6.8693    -3.8984    -6.1594 H            1    LIG   0.0000
  51 H            7.6556    -3.4148    -3.9477 H            1    LIG   0.0000
  52 H            1.2167    -1.6890    -0.0244 H            1    LIG   0.0000
  53 H           -0.8764    -0.5199     0.0045 H            1    LIG   0.0000
@<TRIPOS>BOND
   1        1        2 1
   2        2        3 2
   3        3        4 1
   4        4        5 1
   5        5        6 1
   6        6        7 1
   7        7        8 ar
   8        8        9 ar
   9        9       10 ar
  10       10       11 1
  11       11       12 2
  12       11       13 am
  13       13       14 1
  14       14       15 1
  15       15       16 2
  16       16       17 1
  17       17       18 1
  18       18       19 1
  19       19       20 1
  20       19       21 2
  21       21       22 1
  22       22       23 ar
  23       23       24 ar
  24       24       25 ar
  25       25       26 ar
  26       26       27 ar
  27       27       22 ar
  28       21       28 1
  29       28       17 2
  30       28       29 1
  31       29       14 1
  32       29       30 2
  33       10       31 ar
  34       31       32 ar
  35       32        7 ar
  36        4       33 2
  37       33       34 1
  38       34        2 1
  39        1       35 1
  40        1       36 1
  41        1       37 1
  42        5       38 1
  43        5       39 1
  44        8       40 1
  45        9       41 1
  46       13       42 1
  47       15       43 1
  48       20       44 1
  49       20       45 1
  50       20       46 1
  51       23       47 1
  52       24       48 1
  53       25       49 1
  54       26       50 1
  55       27       51 1
  56       31       52 1
  57       32       53 1

@<TRIPOS>MOLECULE

  53   57
SMALL
USER_CHARGES
@<TRIPOS>ATOM
   1 C1           1.1897     4.9539    -4.1863 C.3          1    LIG   0.0000
   2 C2           0.1407     4.5852    -3.1485 C.2          1    LIG   0.0000
   3 N3           0.3873     4.1489    -1.9382 N.2          1    LIG   0.0000
   4 C4          -0.8342     3.9530    -1.3765 C.2          1    LIG   0.0000
   5 C5          -1.1028     3.4541     0.0332 C.3          1    LIG   0.0000
   6 O6          -1.1948     2.0371     0.0243 O.3          1    LIG   0.0000
   7 C7          -0.0164     1.3781     0.0095 C.ar         1    LIG   0.0000
   8 C8           1.1713     2.1017     0.0040 C.ar         1    LIG   0.0000
   9 C9           2.3819     1.4172    -0.0109 C.ar         1    LIG   0.0000
  10 C10          2.3938     0.0256    -0.0213 C.ar         1    LIG   0.0000
  11 C11          3.6615    -0.6793    -0.0364 C.2          1    LIG   0.0000
  12 O12          3.7140    -1.8270     0.3102 O.2          1    LIG   0.0000
  13 N13          4.7988    -0.0348    -0.4462 N.am         1    LIG   0.0000
  14 N14          5.9774    -0.6902    -0.4602 N.pl3        1    LIG   0.0000
  15 C15          6.3294    -1.3578    -1.6016 C.2          1    LIG   0.0000
  16 N16          7.4608    -2.0228    -1.6922 N.2          1    LIG   0.0000
  17 C17          8.2536    -2.0070    -0.5846 C.2          1    LIG   0.0000
  18 S18          9.7536    -2.7957    -0.4719 S.3          1    LIG   0.0000
  19 C19         10.1251    -2.3351     1.1229 C.2          1    LIG   0.0000
  20 C20         11.3776    -2.7097     1.8977 C.3          1    LIG   0.0000
  21 C21          9.0823    -1.5742     1.5590 C.2          1    LIG   0.0000
  22 C22          9.1056    -1.0272     2.9020 C.ar         1    LIG   0.0000
  23 C23          9.6680     0.2253     3.1253 C.ar         1    LIG   0.0000
  24 C24          9.6868     0.7418     4.4166 C.ar         1    LIG   0.0000
  25 C25          9.1466     0.0077     5.4682 C.ar         1    LIG   0.0000
  26 C26          8.5859    -1.2439     5.2356 C.ar         1    LIG   0.0000
  27 C27          8.5637    -1.7682     3.9471 C.ar         1    LIG   0.0000
  28 C28          8.0389    -1.3917     0.6049 C.2          1    LIG   0.0000
  29 C29          6.7994    -0.6922     0.6345 C.2          1    LIG   0.0000
  30 O30          6.4243    -0.0764     1.6204 O.2          1    LIG   0.0000
  31 C31          1.2008    -0.6892    -0.0164 C.ar         1    LIG   0.0000
  32 C32         -0.0147    -0.0125    -0.0002 C.ar         1    LIG   0.0000
  33 N33         -1.7402     4.2745    -2.2649 N.2          1    LIG   0.0000
  34 O34         -1.1568     4.6493    -3.3237 O.2          1    LIG   0.0000
  35 H            2.1023     4.8156    -3.8016 H            1    LIG   0.0000
  36 H            1.0772     4.3752    -4.9940 H            1    LIG   0.0000
  37 H            1.0791     5.9134    -4.4457 H            1    LIG   0.0000
  38 H           -0.3552     3.7358     0.6346 H            1    LIG   0.0000
  39 H           -1.9624     3.8419     0.3659 H            1    LIG   0.0000
  40 H            1.1551     3.1015     0.0106 H            1    LIG   0.0000
  41 H            3.2435     1.9248    -0.0142 H            1    LIG   0.0000
  42 H            4.7551     0.9215    -0.7350 H            1    LIG   0.0000
  43 H            5.7107    -1.3398    -2.3870 H            1    LIG   0.0000
  44 H           11.3379    -2.3050     2.8113 H            1    LIG   0.0000
  45 H           11.4357    -3.7049     1.9763 H            1    LIG   0.0000
  46 H           12.1832    -2.3658     1.4154 H            1    LIG   0.0000
  47 H           10.0546     0.7485     2.3659 H            1    LIG   0.0000
  48 H           10.0887     1.6411     4.5894 H            1    LIG   0.0000
  49 H            9.1615     0.3818     6.3954 H            1    LIG   0.0000
  50 H            8.1987    -1.7670     5.9948 H            1    LIG   0.0000
  51 H            8.1626    -2.6678     3.7742 H            1    LIG   0.0000
  52 H            1.2167    -1.6890    -0.0244 H            1    LIG   0.0000
  53 H           -0.8764    -0.5199     0.0045 H            1    LIG   0.0000
@<TRIPOS>BOND
   1        1        2 1
   2        2        3 2
   3        3        4 1
   4        4        5 1
   5        5        6 1
   6        6        7 1
   7        7        8 ar
   8        8        9 ar
   9        9       10 ar
  10       10       11 1
  11       11       12 2
  12       11       13 am
  13       13       14 1
  14       14       15 1
  15       15       16 2
  16       16       17 1
  17       17       18 1
  18       18       19 1
  19       19       20 1
  20       19       21 2
  21       21       22 1
  22       22       23 ar
  23       23       24 ar
  24       24       25 ar
  25       25       26 ar
  26       26       27 ar
  27       27       22 ar
  28       21       28 1
  29       28       17 2
  30       28       29 1
  31       29       14 1
  32       29       30 2
  33       10       31 ar
  34       31       32 ar
  35       32        7 ar
  36        4       33 2
  37       33       34 1
  38       34        2 1
  39        1       35 1
  40        1       36 1
  41        1       37 1
  42        5       38 1
  43        5       39 1
  44        8       40 1
  45        9       41 1
  46       13       42 1
  47       15       43 1
  48       20       44 1
  49       20       45 1
  50       20       46 1
  51       23       47 1
  52       24       48 1
  53       25       49 1
  54       26       50 1
  55       27       51 1
  56       31       52 1
  57       32       53 1

@<TRIPOS>MOLECULE

  53   57
SMALL
USER_CHARGES
@<TRIPOS>ATOM
   1 C1          -4.0954     0.8486    -4.6765 C.3          1    LIG   0.0000
   2 C2          -3.3766     0.5837    -3.3626 C.2          1    LIG   0.0000
   3 N3          -3.4140     1.3556    -2.3048 N.2          1    LIG   0.0000
   4 C4          -2.6361     0.7308    -1.3827 C.2          1    LIG   0.0000
   5 C5          -2.3539     1.2168     0.0289 C.3          1    LIG   0.0000
   6 O6          -1.1948     2.0371     0.0243 O.3          1    LIG   0.0000
   7 C7          -0.0164     1.3781     0.0095 C.ar         1    LIG   0.0000
   8 C8           1.1713     2.1017     0.0040 C.ar         1    LIG   0.0000
   9 C9           2.3819     1.4172    -0.0109 C.ar         1    LIG   0.0000
  10 C10          2.3938     0.0256    -0.0213 C.ar         1    LIG   0.0000
  11 C11          3.6615    -0.6793    -0.0364 C.2          1    LIG   0.0000
  12 O12          3.7085    -1.8217    -0.4006 O.2          1    LIG   0.0000
  13 N13          4.8051    -0.0408     0.3653 N.am         1    LIG   0.0000
  14 N14          5.9837    -0.6962     0.3513 N.pl3        1    LIG   0.0000
  15 C15          6.3558    -1.3762     1.4789 C.2          1    LIG   0.0000
  16 N16          7.4914    -2.0369     1.5444 N.2          1    LIG   0.0000
  17 C17          8.2696    -1.9997     0.4272 C.2          1    LIG   0.0000
  18 S18          9.7740    -2.7752     0.2843 S.3          1    LIG   0.0000
  19 C19         10.1145    -2.3020    -1.3137 C.2          1    LIG   0.0000
  20 C20         11.3576    -2.6602    -2.1113 C.3          1    LIG   0.0000
  21 C21          9.0604    -1.5435    -1.7260 C.2          1    LIG   0.0000
  22 C22          9.0581    -0.9854    -3.0645 C.ar         1    LIG   0.0000
  23 C23          8.5043    -1.7131    -4.1127 C.ar         1    LIG   0.0000
  24 C24          8.5071    -1.1705    -5.3934 C.ar         1    LIG   0.0000
  25 C25          9.0594     0.0874    -5.6155 C.ar         1    LIG   0.0000
  26 C26          9.6108     0.8082    -4.5613 C.ar         1    LIG   0.0000
  27 C27          9.6128     0.2725    -3.2773 C.ar         1    LIG   0.0000
  28 C28          8.0315    -1.3760    -0.7536 C.2          1    LIG   0.0000
  29 C29          6.7886    -0.6819    -0.7559 C.2          1    LIG   0.0000
  30 O30          6.3963    -0.0554    -1.7282 O.2          1    LIG   0.0000
  31 C31          1.2008    -0.6892    -0.0164 C.ar         1    LIG   0.0000
  32 C32         -0.0147    -0.0125    -0.0002 C.ar         1    LIG   0.0000
  33 N33         -2.1751    -0.3677    -1.9250 N.2          1    LIG   0.0000
  34 O34         -2.6158    -0.4532    -3.1084 O.2          1    LIG   0.0000
  35 H           -4.6075     1.7050    -4.6095 H            1    LIG   0.0000
  36 H           -3.4249     0.9181    -5.4151 H            1    LIG   0.0000
  37 H           -4.7264     0.0971    -4.8687 H            1    LIG   0.0000
  38 H           -3.1349     1.7452     0.3619 H            1    LIG   0.0000
  39 H           -2.2035     0.4306     0.6283 H            1    LIG   0.0000
  40 H            1.1551     3.1015     0.0106 H            1    LIG   0.0000
  41 H            3.2435     1.9248    -0.0142 H            1    LIG   0.0000
  42 H            4.7660     0.9112     0.6689 H            1    LIG   0.0000
  43 H            5.7488    -1.3708     2.2736 H            1    LIG   0.0000
  44 H           11.2990    -2.2506    -3.0217 H            1    LIG   0.0000
  45 H           12.1678    -2.3112    -1.6403 H            1    LIG   0.0000
  46 H           11.4239    -3.6543    -2.1966 H            1    LIG   0.0000
  47 H            8.1086    -2.6164    -3.9473 H            1    LIG   0.0000
  48 H            8.1120    -1.6844    -6.1548 H            1    LIG   0.0000
  49 H            9.0599     0.4749    -6.5373 H            1    LIG   0.0000
  50 H           10.0060     1.7119    -4.7264 H            1    LIG   0.0000
  51 H           10.0085     0.7859    -2.5159 H            1    LIG   0.0000
  52 H            1.2167    -1.6890    -0.0244 H            1    LIG   0.0000
  53 H           -0.8764    -0.5199     0.0045 H            1    LIG   0.0000
@<TRIPOS>BOND
   1        1        2 1
   2        2        3 2
   3        3        4 1
   4        4        5 1
   5        5        6 1
   6        6        7 1
   7        7        8 ar
   8        8        9 ar
   9        9       10 ar
  10       10       11 1
  11       11       12 2
  12       11       13 am
  13       13       14 1
  14       14       15 1
  15       15       16 2
  16       16       17 1
  17       17       18 1
  18       18       19 1
  19       19       20 1
  20       19       21 2
  21       21       22 1
  22       22       23 ar
  23       23       24 ar
  24       24       25 ar
  25       25       26 ar
  26       26       27 ar
  27       27       22 ar
  28       21       28 1
  29       28       17 2
  30       28       29 1
  31       29       14 1
  32       29       30 2
  33       10       31 ar
  34       31       32 ar
  35       32        7 ar
  36        4       33 2
  37       33       34 1
  38       34        2 1
  39        1       35 1
  40        1       36 1
  41        1       37 1
  42        5       38 1
  43        5       39 1
  44        8       40 1
  45        9       41 1
  46       13       42 1
  47       15       43 1
  48       20       44 1
  49       20       45 1
  50       20       46 1
  51       23       47 1
  52       24       48 1
  53       25       49 1
  54       26       50 1
  55       27       51 1
  56       31       52 1
  57       32       53 1

@<TRIPOS>MOLECULE

  53   57
SMALL
USER_CHARGES
@<TRIPOS>ATOM
   1 C1          -1.6103     5.0798     4.7670 C.3          1    LIG   0.0000
   2 C2          -1.0336     4.6203     3.4367 C.2          1    LIG   0.0000
   3 N3          -1.7311     4.2594     2.3883 N.2          1    LIG   0.0000
   4 C4          -0.8094     3.9337     1.4447 C.2          1    LIG   0.0000
   5 C5          -1.1028     3.4541     0.0332 C.3          1    LIG   0.0000
   6 O6          -1.1948     2.0371     0.0243 O.3          1    LIG   0.0000
   7 C7          -0.0164     1.3781     0.0095 C.ar         1    LIG   0.0000
   8 C8           1.1713     2.1017     0.0040 C.ar         1    LIG   0.0000
   9 C9           2.3819     1.4172    -0.0109 C.ar         1    LIG   0.0000
  10 C10          2.3938     0.0256    -0.0213 C.ar         1    LIG   0.0000
  11 C11          3.6615    -0.6793    -0.0364 C.2          1    LIG   0.0000
  12 O12          3.7085    -1.8217    -0.4006 O.2          1    LIG   0.0000
  13 N13          4.8051    -0.0408     0.3653 N.am         1    LIG   0.0000
  14 N14          5.9837    -0.6962     0.3513 N.pl3        1    LIG   0.0000
  15 C15          6.3558    -1.3762     1.4789 C.2          1    LIG   0.0000
  16 N16          7.4914    -2.0369     1.5444 N.2          1    LIG   0.0000
  17 C17          8.2696    -1.9997     0.4272 C.2          1    LIG   0.0000
  18 S18          9.7740    -2.7752     0.2843 S.3          1    LIG   0.0000
  19 C19         10.1145    -2.3020    -1.3137 C.2          1    LIG   0.0000
  20 C20         11.3576    -2.6602    -2.1113 C.3          1    LIG   0.0000
  21 C21          9.0604    -1.5435    -1.7260 C.2          1    LIG   0.0000
  22 C22          9.0581    -0.9854    -3.0645 C.ar         1    LIG   0.0000
  23 C23          8.5043    -1.7131    -4.1127 C.ar         1    LIG   0.0000
  24 C24          8.5071    -1.1705    -5.3934 C.ar         1    LIG   0.0000
  25 C25          9.0594     0.0874    -5.6155 C.ar         1    LIG   0.0000
  26 C26          9.6108     0.8082    -4.5613 C.ar         1    LIG   0.0000
  27 C27          9.6128     0.2725    -3.2773 C.ar         1    LIG   0.0000
  28 C28          8.0315    -1.3760    -0.7536 C.2          1    LIG   0.0000
  29 C29          6.7886    -0.6819    -0.7559 C.2          1    LIG   0.0000
  30 O30          6.3963    -0.0554    -1.7282 O.2          1    LIG   0.0000
  31 C31          1.2008    -0.6892    -0.0164 C.ar         1    LIG   0.0000
  32 C32         -0.0147    -0.0125    -0.0002 C.ar         1    LIG   0.0000
  33 N33          0.3781     4.1105     1.9662 N.2          1    LIG   0.0000
  34 O34          0.2430     4.5179     3.1569 O.2          1    LIG   0.0000
  35 H           -2.6091     5.0683     4.7191 H            1    LIG   0.0000
  36 H           -1.3043     4.4643     5.4933 H            1    LIG   0.0000
  37 H           -1.2966     6.0088     4.9632 H            1    LIG   0.0000
  38 H           -1.9681     3.8463    -0.2790 H            1    LIG   0.0000
  39 H           -0.3659     3.7441    -0.5774 H            1    LIG   0.0000
  40 H            1.1551     3.1015     0.0106 H            1    LIG   0.0000
  41 H            3.2435     1.9248    -0.0142 H            1    LIG   0.0000
  42 H            4.7660     0.9112     0.6689 H            1    LIG   0.0000
  43 H            5.7488    -1.3708     2.2736 H            1    LIG   0.0000
  44 H           11.2990    -2.2506    -3.0217 H            1    LIG   0.0000
  45 H           12.1678    -2.3112    -1.6403 H            1    LIG   0.0000
  46 H           11.4239    -3.6543    -2.1966 H            1    LIG   0.0000
  47 H            8.1086    -2.6164    -3.9473 H            1    LIG   0.0000
  48 H            8.1120    -1.6844    -6.1548 H            1    LIG   0.0000
  49 H            9.0599     0.4749    -6.5373 H            1    LIG   0.0000
  50 H           10.0060     1.7119    -4.7264 H            1    LIG   0.0000
  51 H           10.0085     0.7859    -2.5159 H            1    LIG   0.0000
  52 H            1.2167    -1.6890    -0.0244 H            1    LIG   0.0000
  53 H           -0.8764    -0.5199     0.0045 H            1    LIG   0.0000
@<TRIPOS>BOND
   1        1        2 1
   2        2        3 2
   3        3        4 1
   4        4        5 1
   5        5        6 1
   6        6        7 1
   7        7        8 ar
   8        8        9 ar
   9        9       10 ar
  10       10       11 1
  11       11       12 2
  12       11       13 am
  13       13       14 1
  14       14       15 1
  15       15       16 2
  16       16       17 1
  17       17       18 1
  18       18       19 1
  19       19       20 1
  20       19       21 2
  21       21       22 1
  22       22       23 ar
  23       23       24 ar
  24       24       25 ar
  25       25       26 ar
  26       26       27 ar
  27       27       22 ar
  28       21       28 1
  29       28       17 2
  30       28       29 1
  31       29       14 1
  32       29       30 2
  33       10       31 ar
  34       31       32 ar
  35       32        7 ar
  36        4       33 2
  37       33       34 1
  38       34        2 1
  39        1       35 1
  40        1       36 1
  41        1       37 1
  42        5       38 1
  43        5       39 1
  44        8       40 1
  45        9       41 1
  46       13       42 1
  47       15       43 1
  48       20       44 1
  49       20       45 1
  50       20       46 1
  51       23       47 1
  52       24       48 1
  53       25       49 1
  54       26       50 1
  55       27       51 1
  56       31       52 1
  57       32       53 1

