@<TRIPOS>MOLECULE
*****
 53 57 0 0 0
SMALL
USER_CHARGES

@<TRIPOS>ATOM
      1 C1          1.1897    4.9539   -4.1863 C.3     1  LIG1        0.0000
      2 C2          0.1407    4.5852   -3.1485 C.2     1  LIG1        0.0000
      3 N3          0.3873    4.1489   -1.9382 N.2     1  LIG1        0.0000
      4 C4         -0.8342    3.9530   -1.3765 C.2     1  LIG1        0.0000
      5 C5         -1.1028    3.4541    0.0332 C.3     1  LIG1        0.0000
      6 O6         -1.1948    2.0371    0.0243 O.2     1  LIG1        0.0000
      7 C7         -0.0164    1.3781    0.0095 C.3     1  LIG1        0.0000
      8 C8          1.1713    2.1017    0.0040 C.3     1  LIG1        0.0000
      9 C9          2.3819    1.4172   -0.0109 C.3     1  LIG1        0.0000
     10 C10         2.3938    0.0256   -0.0213 C.3     1  LIG1        0.0000
     11 C11         3.6615   -0.6793   -0.0364 C.2     1  LIG1        0.0000
     12 O12         3.7140   -1.8270    0.3102 O.2     1  LIG1        0.0000
     13 N13         4.7988   -0.0348   -0.4462 N.am    1  LIG1        0.0000
     14 N14         5.9774   -0.6902   -0.4602 N.am    1  LIG1        0.0000
     15 C15         6.3294   -1.3578   -1.6016 C.2     1  LIG1        0.0000
     16 N16         7.4608   -2.0228   -1.6922 N.2     1  LIG1        0.0000
     17 C17         8.2536   -2.0070   -0.5846 C.2     1  LIG1        0.0000
     18 S18         9.7536   -2.7957   -0.4719 S.3     1  LIG1        0.0000
     19 C19        10.1251   -2.3351    1.1229 C.2     1  LIG1        0.0000
     20 C20        11.3776   -2.7097    1.8977 C.3     1  LIG1        0.0000
     21 C21         9.0823   -1.5742    1.5590 C.2     1  LIG1        0.0000
     22 C22         9.1056   -1.0272    2.9020 C.3     1  LIG1        0.0000
     23 C23         9.6680    0.2253    3.1253 C.3     1  LIG1        0.0000
     24 C24         9.6868    0.7418    4.4166 C.3     1  LIG1        0.0000
     25 C25         9.1466    0.0077    5.4682 C.3     1  LIG1        0.0000
     26 C26         8.5859   -1.2439    5.2356 C.3     1  LIG1        0.0000
     27 C27         8.5637   -1.7682    3.9471 C.3     1  LIG1        0.0000
     28 C28         8.0389   -1.3917    0.6049 C.2     1  LIG1        0.0000
     29 C29         6.7994   -0.6922    0.6345 C.2     1  LIG1        0.0000
     30 O30         6.4243   -0.0764    1.6204 O.2     1  LIG1        0.0000
     31 C31         1.2008   -0.6892   -0.0164 C.3     1  LIG1        0.0000
     32 C32        -0.0147   -0.0125   -0.0002 C.3     1  LIG1        0.0000
     33 N33        -1.7402    4.2745   -2.2649 N.2     1  LIG1        0.0000
     34 O34        -1.1568    4.6493   -3.3237 O.2     1  LIG1        0.0000
     35 H           2.1023    4.8156   -3.8016 H       1  LIG1        0.0000
     36 H           1.0772    4.3752   -4.9940 H       1  LIG1        0.0000
     37 H           1.0791    5.9134   -4.4457 H       1  LIG1        0.0000
     38 H          -0.3552    3.7358    0.6346 H       1  LIG1        0.0000
     39 H          -1.9624    3.8419    0.3659 H       1  LIG1        0.0000
     40 H           1.1551    3.1015    0.0106 H       1  LIG1        0.0000
     41 H           3.2435    1.9248   -0.0142 H       1  LIG1        0.0000
     42 H           4.7551    0.9215   -0.7350 H       1  LIG1        0.0000
     43 H           5.7107   -1.3398   -2.3870 H       1  LIG1        0.0000
     44 H          11.3379   -2.3050    2.8113 H       1  LIG1        0.0000
     45 H          11.4357   -3.7049    1.9763 H       1  LIG1        0.0000
     46 H          12.1832   -2.3658    1.4154 H       1  LIG1        0.0000
     47 H          10.0546    0.7485    2.3659 H       1  LIG1        0.0000
     48 H          10.0887    1.6411    4.5894 H       1  LIG1        0.0000
     49 H           9.1615    0.3818    6.3954 H       1  LIG1        0.0000
     50 H           8.1987   -1.7670    5.9948 H       1  LIG1        0.0000
     51 H           8.1626   -2.6678    3.7742 H       1  LIG1        0.0000
     52 H           1.2167   -1.6890   -0.0244 H       1  LIG1        0.0000
     53 H          -0.8764   -0.5199    0.0045 H       1  LIG1        0.0000
@<TRIPOS>BOND
     1     1     2    1
     2     2     3    2
     3     3     4    1
     4     4     5    1
     5     5     6    1
     6     6     7    1
     7     7     8   ar
     8     8     9   ar
     9     9    10   ar
    10    10    11    1
    11    11    12    2
    12    11    13   am
    13    13    14    1
    14    14    15    1
    15    15    16    2
    16    16    17    1
    17    17    18    1
    18    18    19    1
    19    19    20    1
    20    19    21    2
    21    21    22    1
    22    22    23   ar
    23    23    24   ar
    24    24    25   ar
    25    25    26   ar
    26    26    27   ar
    27    27    22   ar
    28    21    28    1
    29    28    17    2
    30    28    29    1
    31    29    14   am
    32    29    30    2
    33    10    31   ar
    34    31    32   ar
    35    32     7   ar
    36     4    33    2
    37    33    34    1
    38    34     2    1
    39     1    35    1
    40     1    36    1
    41     1    37    1
    42     5    38    1
    43     5    39    1
    44     8    40    1
    45     9    41    1
    46    13    42    1
    47    15    43    1
    48    20    44    1
    49    20    45    1
    50    20    46    1
    51    23    47    1
    52    24    48    1
    53    25    49    1
    54    26    50    1
    55    27    51    1
    56    31    52    1
    57    32    53    1
