@<TRIPOS>MOLECULE
*****
 53 57 0 0 0
SMALL
USER_CHARGES

@<TRIPOS>ATOM
      1 C1         -6.2884    4.0165   -1.3820 C.3     1  LIG1        0.0000
      2 C2         -5.2481    3.2728   -0.5585 C.2     1  LIG1        0.0000
      3 N3         -4.2564    2.5668   -1.0423 N.2     1  LIG1        0.0000
      4 C4         -3.5947    2.0935    0.0458 C.2     1  LIG1        0.0000
      5 C5         -2.3539    1.2168    0.0289 C.3     1  LIG1        0.0000
      6 O6         -1.1948    2.0371    0.0243 O.2     1  LIG1        0.0000
      7 C7         -0.0164    1.3781    0.0095 C.3     1  LIG1        0.0000
      8 C8          1.1713    2.1017    0.0040 C.3     1  LIG1        0.0000
      9 C9          2.3819    1.4172   -0.0109 C.3     1  LIG1        0.0000
     10 C10         2.3938    0.0256   -0.0213 C.3     1  LIG1        0.0000
     11 C11         3.6615   -0.6793   -0.0364 C.2     1  LIG1        0.0000
     12 O12         4.6577   -0.1148   -0.3954 O.2     1  LIG1        0.0000
     13 N13         3.7214   -1.9896    0.3593 N.am    1  LIG1        0.0000
     14 N14         4.9000   -2.6449    0.3453 N.am    1  LIG1        0.0000
     15 C15         5.6734   -2.6032    1.4733 C.2     1  LIG1        0.0000
     16 N16         6.8366   -3.2142    1.5367 N.2     1  LIG1        0.0000
     17 C17         7.2213   -3.8847    0.4152 C.2     1  LIG1        0.0000
     18 S18         8.6804   -4.7415    0.2674 S.3     1  LIG1        0.0000
     19 C19         8.4562   -5.2840   -1.3292 C.2     1  LIG1        0.0000
     20 C20         9.4210   -6.1423   -2.1303 C.3     1  LIG1        0.0000
     21 C21         7.2520   -4.7954   -1.7387 C.2     1  LIG1        0.0000
     22 C22         6.7754   -5.0903   -3.0762 C.3     1  LIG1        0.0000
     23 C23         6.0041   -6.2267   -3.2971 C.3     1  LIG1        0.0000
     24 C24         5.5519   -6.5022   -4.5832 C.3     1  LIG1        0.0000
     25 C25         5.8714   -5.6454   -5.6322 C.3     1  LIG1        0.0000
     26 C26         6.6430   -4.5110   -5.4021 C.3     1  LIG1        0.0000
     27 C27         7.1000   -4.2284   -4.1188 C.3     1  LIG1        0.0000
     28 C28         6.5639   -4.0150   -0.7640 C.2     1  LIG1        0.0000
     29 C29         5.3154   -3.3311   -0.7641 C.2     1  LIG1        0.0000
     30 O30         4.5766   -3.3275   -1.7368 O.2     1  LIG1        0.0000
     31 C31         1.2008   -0.6892   -0.0164 C.3     1  LIG1        0.0000
     32 C32        -0.0147   -0.0125   -0.0002 C.3     1  LIG1        0.0000
     33 N33        -4.2140    2.5303    1.1131 N.2     1  LIG1        0.0000
     34 O34        -5.2029    3.2323    0.7510 O.2     1  LIG1        0.0000
     35 H          -6.0978    3.8874   -2.3551 H       1  LIG1        0.0000
     36 H          -7.1983    3.6597   -1.1704 H       1  LIG1        0.0000
     37 H          -6.2532    4.9913   -1.1619 H       1  LIG1        0.0000
     38 H          -2.3465    0.6339    0.8415 H       1  LIG1        0.0000
     39 H          -2.3609    0.6450   -0.7914 H       1  LIG1        0.0000
     40 H           1.1551    3.1015    0.0106 H       1  LIG1        0.0000
     41 H           3.2435    1.9248   -0.0142 H       1  LIG1        0.0000
     42 H           2.8912   -2.4600    0.6585 H       1  LIG1        0.0000
     43 H           5.3460   -2.0951    2.2700 H       1  LIG1        0.0000
     44 H           9.0398   -6.3130   -3.0389 H       1  LIG1        0.0000
     45 H          10.2956   -5.6657   -2.2199 H       1  LIG1        0.0000
     46 H           9.5626   -7.0130   -1.6592 H       1  LIG1        0.0000
     47 H           5.7773   -6.8388   -2.5395 H       1  LIG1        0.0000
     48 H           4.9969   -7.3163   -4.7542 H       1  LIG1        0.0000
     49 H           5.5448   -5.8461   -6.5558 H       1  LIG1        0.0000
     50 H           6.8693   -3.8984   -6.1594 H       1  LIG1        0.0000
     51 H           7.6556   -3.4148   -3.9477 H       1  LIG1        0.0000
     52 H           1.2167   -1.6890   -0.0244 H       1  LIG1        0.0000
     53 H          -0.8764   -0.5199    0.0045 H       1  LIG1        0.0000
@<TRIPOS>BOND
     1     1     2    1
     2     2     3    2
     3     3     4    1
     4     4     5    1
     5     5     6    1
     6     6     7    1
     7     7     8   ar
     8     8     9   ar
     9     9    10   ar
    10    10    11    1
    11    11    12    2
    12    11    13   am
    13    13    14    1
    14    14    15    1
    15    15    16    2
    16    16    17    1
    17    17    18    1
    18    18    19    1
    19    19    20    1
    20    19    21    2
    21    21    22    1
    22    22    23   ar
    23    23    24   ar
    24    24    25   ar
    25    25    26   ar
    26    26    27   ar
    27    27    22   ar
    28    21    28    1
    29    28    17    2
    30    28    29    1
    31    29    14   am
    32    29    30    2
    33    10    31   ar
    34    31    32   ar
    35    32     7   ar
    36     4    33    2
    37    33    34    1
    38    34     2    1
    39     1    35    1
    40     1    36    1
    41     1    37    1
    42     5    38    1
    43     5    39    1
    44     8    40    1
    45     9    41    1
    46    13    42    1
    47    15    43    1
    48    20    44    1
    49    20    45    1
    50    20    46    1
    51    23    47    1
    52    24    48    1
    53    25    49    1
    54    26    50    1
    55    27    51    1
    56    31    52    1
    57    32    53    1
