@<TRIPOS>MOLECULE
*****
 53 57 0 0 0
SMALL
USER_CHARGES

@<TRIPOS>ATOM
      1 C1         -6.2884    4.0165   -1.3820 C.3     1  LIG1        0.0000
      2 C2         -5.2481    3.2728   -0.5585 C.2     1  LIG1        0.0000
      3 N3         -4.2564    2.5668   -1.0423 N.2     1  LIG1        0.0000
      4 C4         -3.5947    2.0935    0.0458 C.2     1  LIG1        0.0000
      5 C5         -2.3539    1.2168    0.0289 C.3     1  LIG1        0.0000
      6 O6         -1.1948    2.0371    0.0243 O.2     1  LIG1        0.0000
      7 C7         -0.0164    1.3781    0.0095 C.3     1  LIG1        0.0000
      8 C8          1.1713    2.1017    0.0040 C.3     1  LIG1        0.0000
      9 C9          2.3819    1.4172   -0.0109 C.3     1  LIG1        0.0000
     10 C10         2.3938    0.0256   -0.0213 C.3     1  LIG1        0.0000
     11 C11         3.6615   -0.6793   -0.0364 C.2     1  LIG1        0.0000
     12 O12         4.6577   -0.1148   -0.3954 O.2     1  LIG1        0.0000
     13 N13         3.7214   -1.9896    0.3593 N.am    1  LIG1        0.0000
     14 N14         4.9000   -2.6449    0.3453 N.am    1  LIG1        0.0000
     15 C15         5.2520   -3.3126   -0.7960 C.2     1  LIG1        0.0000
     16 N16         6.3834   -3.9775   -0.8867 N.2     1  LIG1        0.0000
     17 C17         7.1762   -3.9617    0.2209 C.2     1  LIG1        0.0000
     18 S18         8.6762   -4.7504    0.3336 S.3     1  LIG1        0.0000
     19 C19         9.0476   -4.2898    1.9284 C.2     1  LIG1        0.0000
     20 C20        10.3001   -4.6645    2.7032 C.3     1  LIG1        0.0000
     21 C21         8.0049   -3.5289    2.3646 C.2     1  LIG1        0.0000
     22 C22         8.0282   -2.9820    3.7075 C.3     1  LIG1        0.0000
     23 C23         8.5906   -1.7295    3.9309 C.3     1  LIG1        0.0000
     24 C24         8.6094   -1.2129    5.2221 C.3     1  LIG1        0.0000
     25 C25         8.0692   -1.9470    6.2737 C.3     1  LIG1        0.0000
     26 C26         7.5085   -3.1986    6.0411 C.3     1  LIG1        0.0000
     27 C27         7.4863   -3.7230    4.7526 C.3     1  LIG1        0.0000
     28 C28         6.9615   -3.3464    1.4105 C.2     1  LIG1        0.0000
     29 C29         5.7220   -2.6469    1.4401 C.2     1  LIG1        0.0000
     30 O30         5.3469   -2.0311    2.4260 O.2     1  LIG1        0.0000
     31 C31         1.2008   -0.6892   -0.0164 C.3     1  LIG1        0.0000
     32 C32        -0.0147   -0.0125   -0.0002 C.3     1  LIG1        0.0000
     33 N33        -4.2140    2.5303    1.1131 N.2     1  LIG1        0.0000
     34 O34        -5.2029    3.2323    0.7510 O.2     1  LIG1        0.0000
     35 H          -6.0978    3.8874   -2.3551 H       1  LIG1        0.0000
     36 H          -7.1983    3.6597   -1.1704 H       1  LIG1        0.0000
     37 H          -6.2532    4.9913   -1.1619 H       1  LIG1        0.0000
     38 H          -2.3465    0.6339    0.8415 H       1  LIG1        0.0000
     39 H          -2.3609    0.6450   -0.7914 H       1  LIG1        0.0000
     40 H           1.1551    3.1015    0.0106 H       1  LIG1        0.0000
     41 H           3.2435    1.9248   -0.0142 H       1  LIG1        0.0000
     42 H           2.8912   -2.4600    0.6585 H       1  LIG1        0.0000
     43 H           4.6333   -3.2945   -1.5814 H       1  LIG1        0.0000
     44 H          10.2605   -4.2597    3.6168 H       1  LIG1        0.0000
     45 H          10.3583   -5.6597    2.7818 H       1  LIG1        0.0000
     46 H          11.1058   -4.3205    2.2209 H       1  LIG1        0.0000
     47 H           8.9772   -1.2062    3.1714 H       1  LIG1        0.0000
     48 H           9.0112   -0.3136    5.3949 H       1  LIG1        0.0000
     49 H           8.0841   -1.5729    7.2010 H       1  LIG1        0.0000
     50 H           7.1213   -3.7217    6.8004 H       1  LIG1        0.0000
     51 H           7.0852   -4.6225    4.5797 H       1  LIG1        0.0000
     52 H           1.2167   -1.6890   -0.0244 H       1  LIG1        0.0000
     53 H          -0.8764   -0.5199    0.0045 H       1  LIG1        0.0000
@<TRIPOS>BOND
     1     1     2    1
     2     2     3    2
     3     3     4    1
     4     4     5    1
     5     5     6    1
     6     6     7    1
     7     7     8   ar
     8     8     9   ar
     9     9    10   ar
    10    10    11    1
    11    11    12    2
    12    11    13   am
    13    13    14    1
    14    14    15    1
    15    15    16    2
    16    16    17    1
    17    17    18    1
    18    18    19    1
    19    19    20    1
    20    19    21    2
    21    21    22    1
    22    22    23   ar
    23    23    24   ar
    24    24    25   ar
    25    25    26   ar
    26    26    27   ar
    27    27    22   ar
    28    21    28    1
    29    28    17    2
    30    28    29    1
    31    29    14   am
    32    29    30    2
    33    10    31   ar
    34    31    32   ar
    35    32     7   ar
    36     4    33    2
    37    33    34    1
    38    34     2    1
    39     1    35    1
    40     1    36    1
    41     1    37    1
    42     5    38    1
    43     5    39    1
    44     8    40    1
    45     9    41    1
    46    13    42    1
    47    15    43    1
    48    20    44    1
    49    20    45    1
    50    20    46    1
    51    23    47    1
    52    24    48    1
    53    25    49    1
    54    26    50    1
    55    27    51    1
    56    31    52    1
    57    32    53    1
