@<TRIPOS>MOLECULE
*****
 53 57 0 0 0
SMALL
USER_CHARGES

@<TRIPOS>ATOM
      1 C1         -1.6103    5.0798    4.7670 C.3     1  LIG1        0.0000
      2 C2         -1.0336    4.6203    3.4367 C.2     1  LIG1        0.0000
      3 N3         -1.7311    4.2594    2.3883 N.2     1  LIG1        0.0000
      4 C4         -0.8094    3.9337    1.4447 C.2     1  LIG1        0.0000
      5 C5         -1.1028    3.4541    0.0332 C.3     1  LIG1        0.0000
      6 O6         -1.1948    2.0371    0.0243 O.2     1  LIG1        0.0000
      7 C7         -0.0164    1.3781    0.0095 C.3     1  LIG1        0.0000
      8 C8          1.1713    2.1017    0.0040 C.3     1  LIG1        0.0000
      9 C9          2.3819    1.4172   -0.0109 C.3     1  LIG1        0.0000
     10 C10         2.3938    0.0256   -0.0213 C.3     1  LIG1        0.0000
     11 C11         3.6615   -0.6793   -0.0364 C.2     1  LIG1        0.0000
     12 O12         3.7085   -1.8217   -0.4006 O.2     1  LIG1        0.0000
     13 N13         4.8051   -0.0408    0.3653 N.am    1  LIG1        0.0000
     14 N14         5.9837   -0.6962    0.3513 N.am    1  LIG1        0.0000
     15 C15         6.3558   -1.3762    1.4789 C.2     1  LIG1        0.0000
     16 N16         7.4914   -2.0369    1.5444 N.2     1  LIG1        0.0000
     17 C17         8.2696   -1.9997    0.4272 C.2     1  LIG1        0.0000
     18 S18         9.7740   -2.7752    0.2843 S.3     1  LIG1        0.0000
     19 C19        10.1145   -2.3020   -1.3137 C.2     1  LIG1        0.0000
     20 C20        11.3576   -2.6602   -2.1113 C.3     1  LIG1        0.0000
     21 C21         9.0604   -1.5435   -1.7260 C.2     1  LIG1        0.0000
     22 C22         9.0581   -0.9854   -3.0645 C.3     1  LIG1        0.0000
     23 C23         8.5043   -1.7131   -4.1127 C.3     1  LIG1        0.0000
     24 C24         8.5071   -1.1705   -5.3934 C.3     1  LIG1        0.0000
     25 C25         9.0594    0.0874   -5.6155 C.3     1  LIG1        0.0000
     26 C26         9.6108    0.8082   -4.5613 C.3     1  LIG1        0.0000
     27 C27         9.6128    0.2725   -3.2773 C.3     1  LIG1        0.0000
     28 C28         8.0315   -1.3760   -0.7536 C.2     1  LIG1        0.0000
     29 C29         6.7886   -0.6819   -0.7559 C.2     1  LIG1        0.0000
     30 O30         6.3963   -0.0554   -1.7282 O.2     1  LIG1        0.0000
     31 C31         1.2008   -0.6892   -0.0164 C.3     1  LIG1        0.0000
     32 C32        -0.0147   -0.0125   -0.0002 C.3     1  LIG1        0.0000
     33 N33         0.3781    4.1105    1.9662 N.2     1  LIG1        0.0000
     34 O34         0.2430    4.5179    3.1569 O.2     1  LIG1        0.0000
     35 H          -2.6091    5.0683    4.7191 H       1  LIG1        0.0000
     36 H          -1.3043    4.4643    5.4933 H       1  LIG1        0.0000
     37 H          -1.2966    6.0088    4.9632 H       1  LIG1        0.0000
     38 H          -1.9681    3.8463   -0.2790 H       1  LIG1        0.0000
     39 H          -0.3659    3.7441   -0.5774 H       1  LIG1        0.0000
     40 H           1.1551    3.1015    0.0106 H       1  LIG1        0.0000
     41 H           3.2435    1.9248   -0.0142 H       1  LIG1        0.0000
     42 H           4.7660    0.9112    0.6689 H       1  LIG1        0.0000
     43 H           5.7488   -1.3708    2.2736 H       1  LIG1        0.0000
     44 H          11.2990   -2.2506   -3.0217 H       1  LIG1        0.0000
     45 H          12.1678   -2.3112   -1.6403 H       1  LIG1        0.0000
     46 H          11.4239   -3.6543   -2.1966 H       1  LIG1        0.0000
     47 H           8.1086   -2.6164   -3.9473 H       1  LIG1        0.0000
     48 H           8.1120   -1.6844   -6.1548 H       1  LIG1        0.0000
     49 H           9.0599    0.4749   -6.5373 H       1  LIG1        0.0000
     50 H          10.0060    1.7119   -4.7264 H       1  LIG1        0.0000
     51 H          10.0085    0.7859   -2.5159 H       1  LIG1        0.0000
     52 H           1.2167   -1.6890   -0.0244 H       1  LIG1        0.0000
     53 H          -0.8764   -0.5199    0.0045 H       1  LIG1        0.0000
@<TRIPOS>BOND
     1     1     2    1
     2     2     3    2
     3     3     4    1
     4     4     5    1
     5     5     6    1
     6     6     7    1
     7     7     8   ar
     8     8     9   ar
     9     9    10   ar
    10    10    11    1
    11    11    12    2
    12    11    13   am
    13    13    14    1
    14    14    15    1
    15    15    16    2
    16    16    17    1
    17    17    18    1
    18    18    19    1
    19    19    20    1
    20    19    21    2
    21    21    22    1
    22    22    23   ar
    23    23    24   ar
    24    24    25   ar
    25    25    26   ar
    26    26    27   ar
    27    27    22   ar
    28    21    28    1
    29    28    17    2
    30    28    29    1
    31    29    14   am
    32    29    30    2
    33    10    31   ar
    34    31    32   ar
    35    32     7   ar
    36     4    33    2
    37    33    34    1
    38    34     2    1
    39     1    35    1
    40     1    36    1
    41     1    37    1
    42     5    38    1
    43     5    39    1
    44     8    40    1
    45     9    41    1
    46    13    42    1
    47    15    43    1
    48    20    44    1
    49    20    45    1
    50    20    46    1
    51    23    47    1
    52    24    48    1
    53    25    49    1
    54    26    50    1
    55    27    51    1
    56    31    52    1
    57    32    53    1
