@<TRIPOS>MOLECULE

  25   27
SMALL
USER_CHARGES
@<TRIPOS>ATOM
   1 N1          -0.1400     1.0000     1.0000 N.1          1    LIG   0.0000
   2 C2           1.0000     1.0000     1.0000 C.1          1    LIG   0.0000
   3 C3           2.5215     1.0000     1.0000 C.2          1    LIG   0.0000
   4 S4           3.5227    -0.2138     0.3557 S.3          1    LIG   0.0000
   5 C5           5.0248     0.4992     0.7285 C.2          1    LIG   0.0000
   6 C6           4.7257     1.6713     1.3506 C.2          1    LIG   0.0000
   7 C7           3.3448     1.9625     1.5091 C.2          1    LIG   0.0000
   8 C8           2.8345     3.1597     2.1447 C.2          1    LIG   0.0000
   9 C9           2.9941     4.4757     1.6645 C.2          1    LIG   0.0000
  10 N10          2.3873     5.2354     2.5398 N.2          1    LIG   0.0000
  11 N11          1.8710     4.5220     3.5163 N.pl3        1    LIG   0.0000
  12 C12          2.1183     3.2123     3.3008 C.2          1    LIG   0.0000
  13 O13          1.6886     2.2717     4.1674 O.3          1    LIG   0.0000
  14 C14          1.6872     2.5576     5.5607 C.3          1    LIG   0.0000
  15 C15          1.6955     4.0512     5.8593 C.3          1    LIG   0.0000
  16 C16          1.1264     4.8965     4.7227 C.3          1    LIG   0.0000
  17 H            5.9343     0.1332     0.5315 H            1    LIG   0.0000
  18 H            5.4377     2.2927     1.6778 H            1    LIG   0.0000
  19 H            3.4690     4.7660     0.8337 H            1    LIG   0.0000
  20 H            2.5004     2.1455     5.9718 H            1    LIG   0.0000
  21 H            0.8674     2.1552     5.9682 H            1    LIG   0.0000
  22 H            2.6394     4.3366     6.0254 H            1    LIG   0.0000
  23 H            1.1487     4.2139     6.6806 H            1    LIG   0.0000
  24 H            0.1527     4.7035     4.6022 H            1    LIG   0.0000
  25 H            1.2517     5.8690     4.9187 H            1    LIG   0.0000
@<TRIPOS>BOND
   1        1        2 3
   2        2        3 1
   3        3        4 1
   4        4        5 1
   5        5        6 2
   6        6        7 1
   7        7        3 2
   8        7        8 1
   9        8        9 1
  10        9       10 2
  11       10       11 1
  12       11       12 1
  13       12        8 2
  14       12       13 1
  15       13       14 1
  16       14       15 1
  17       15       16 1
  18       16       11 1
  19        5       17 1
  20        6       18 1
  21        9       19 1
  22       14       20 1
  23       14       21 1
  24       15       22 1
  25       15       23 1
  26       16       24 1
  27       16       25 1

@<TRIPOS>MOLECULE

  25   27
SMALL
USER_CHARGES
@<TRIPOS>ATOM
   1 N1          -0.1400     1.0000     1.0000 N.1          1    LIG   0.0000
   2 C2           1.0000     1.0000     1.0000 C.1          1    LIG   0.0000
   3 C3           2.5215     1.0000     1.0000 C.2          1    LIG   0.0000
   4 S4           3.5227    -0.2138     0.3557 S.3          1    LIG   0.0000
   5 C5           5.0248     0.4992     0.7285 C.2          1    LIG   0.0000
   6 C6           4.7257     1.6713     1.3506 C.2          1    LIG   0.0000
   7 C7           3.3448     1.9625     1.5091 C.2          1    LIG   0.0000
   8 C8           2.8345     3.1597     2.1447 C.2          1    LIG   0.0000
   9 C9           3.0032     3.5044     3.5014 C.2          1    LIG   0.0000
  10 N10          2.3848     4.6484     3.6433 N.2          1    LIG   0.0000
  11 N11          1.8465     5.0452     2.5112 N.pl3        1    LIG   0.0000
  12 C12          2.1156     4.1452     1.5414 C.2          1    LIG   0.0000
  13 O13          1.6691     4.3267     0.2811 O.3          1    LIG   0.0000
  14 C14          0.3928     4.9192     0.0733 C.3          1    LIG   0.0000
  15 C15         -0.0883     5.7262     1.2722 C.3          1    LIG   0.0000
  16 C16          1.0496     6.2247     2.1593 C.3          1    LIG   0.0000
  17 H            5.9343     0.1332     0.5315 H            1    LIG   0.0000
  18 H            5.4377     2.2927     1.6778 H            1    LIG   0.0000
  19 H            3.4906     2.9859     4.2040 H            1    LIG   0.0000
  20 H           -0.2702     4.1931    -0.1093 H            1    LIG   0.0000
  21 H            0.4483     5.5269    -0.7189 H            1    LIG   0.0000
  22 H           -0.6905     5.1484     1.8231 H            1    LIG   0.0000
  23 H           -0.6001     6.5175     0.9377 H            1    LIG   0.0000
  24 H            1.6114     6.8861     1.6623 H            1    LIG   0.0000
  25 H            0.6825     6.6530     2.9849 H            1    LIG   0.0000
@<TRIPOS>BOND
   1        1        2 3
   2        2        3 1
   3        3        4 1
   4        4        5 1
   5        5        6 2
   6        6        7 1
   7        7        3 2
   8        7        8 1
   9        8        9 1
  10        9       10 2
  11       10       11 1
  12       11       12 1
  13       12        8 2
  14       12       13 1
  15       13       14 1
  16       14       15 1
  17       15       16 1
  18       16       11 1
  19        5       17 1
  20        6       18 1
  21        9       19 1
  22       14       20 1
  23       14       21 1
  24       15       22 1
  25       15       23 1
  26       16       24 1
  27       16       25 1

@<TRIPOS>MOLECULE

  25   27
SMALL
USER_CHARGES
@<TRIPOS>ATOM
   1 N1          -0.1400     1.0000     1.0000 N.1          1    LIG   0.0000
   2 C2           1.0000     1.0000     1.0000 C.1          1    LIG   0.0000
   3 C3           2.5215     1.0000     1.0000 C.2          1    LIG   0.0000
   4 S4           3.5227    -0.2138     0.3557 S.3          1    LIG   0.0000
   5 C5           5.0248     0.4992     0.7285 C.2          1    LIG   0.0000
   6 C6           4.7257     1.6713     1.3506 C.2          1    LIG   0.0000
   7 C7           3.3448     1.9625     1.5091 C.2          1    LIG   0.0000
   8 C8           2.8345     3.1597     2.1447 C.2          1    LIG   0.0000
   9 C9           2.0131     3.1945     3.2902 C.2          1    LIG   0.0000
  10 N10          1.7895     4.4641     3.5125 N.2          1    LIG   0.0000
  11 N11          2.3869     5.2193     2.6170 N.pl3        1    LIG   0.0000
  12 C12          3.0643     4.4407     1.7466 C.2          1    LIG   0.0000
  13 O13          3.7636     4.9823     0.7278 O.3          1    LIG   0.0000
  14 C14          3.2578     6.1399     0.0742 C.3          1    LIG   0.0000
  15 C15          2.2555     6.9101     0.9241 C.3          1    LIG   0.0000
  16 C16          2.4266     6.6721     2.4221 C.3          1    LIG   0.0000
  17 H            5.9343     0.1332     0.5315 H            1    LIG   0.0000
  18 H            5.4377     2.2927     1.6778 H            1    LIG   0.0000
  19 H            1.6745     2.4162     3.8190 H            1    LIG   0.0000
  20 H            2.8073     5.8570    -0.7726 H            1    LIG   0.0000
  21 H            4.0242     6.7448    -0.1420 H            1    LIG   0.0000
  22 H            1.3330     6.6278     0.6610 H            1    LIG   0.0000
  23 H            2.3696     7.8868     0.7427 H            1    LIG   0.0000
  24 H            3.3035     7.0389     2.7328 H            1    LIG   0.0000
  25 H            1.6838     7.1096     2.9290 H            1    LIG   0.0000
@<TRIPOS>BOND
   1        1        2 3
   2        2        3 1
   3        3        4 1
   4        4        5 1
   5        5        6 2
   6        6        7 1
   7        7        3 2
   8        7        8 1
   9        8        9 1
  10        9       10 2
  11       10       11 1
  12       11       12 1
  13       12        8 2
  14       12       13 1
  15       13       14 1
  16       14       15 1
  17       15       16 1
  18       16       11 1
  19        5       17 1
  20        6       18 1
  21        9       19 1
  22       14       20 1
  23       14       21 1
  24       15       22 1
  25       15       23 1
  26       16       24 1
  27       16       25 1

@<TRIPOS>MOLECULE

  25   27
SMALL
USER_CHARGES
@<TRIPOS>ATOM
   1 N1          -0.1400     1.0000     1.0000 N.1          1    LIG   0.0000
   2 C2           1.0000     1.0000     1.0000 C.1          1    LIG   0.0000
   3 C3           2.5215     1.0000     1.0000 C.2          1    LIG   0.0000
   4 S4           3.5227    -0.2138     0.3557 S.3          1    LIG   0.0000
   5 C5           5.0248     0.4992     0.7285 C.2          1    LIG   0.0000
   6 C6           4.7257     1.6713     1.3506 C.2          1    LIG   0.0000
   7 C7           3.3448     1.9625     1.5091 C.2          1    LIG   0.0000
   8 C8           2.8345     3.1597     2.1447 C.2          1    LIG   0.0000
   9 C9           2.0045     4.1227     1.5350 C.2          1    LIG   0.0000
  10 N10          1.7918     5.0250     2.4581 N.2          1    LIG   0.0000
  11 N11          2.4102     4.7193     3.5775 N.pl3        1    LIG   0.0000
  12 C12          3.0669     3.5492     3.4278 C.2          1    LIG   0.0000
  13 O13          3.7823     3.0187     4.4413 O.3          1    LIG   0.0000
  14 C14          4.4948     3.8833     5.3177 C.3          1    LIG   0.0000
  15 C15          3.9600     5.3095     5.3073 C.3          1    LIG   0.0000
  16 C16          2.5000     5.4028     4.8717 C.3          1    LIG   0.0000
  17 H            5.9343     0.1332     0.5315 H            1    LIG   0.0000
  18 H            5.4377     2.2927     1.6778 H            1    LIG   0.0000
  19 H            1.6538     4.1172     0.5985 H            1    LIG   0.0000
  20 H            5.4548     3.9004     5.0382 H            1    LIG   0.0000
  21 H            4.4248     3.5230     6.2479 H            1    LIG   0.0000
  22 H            4.5148     5.8521     4.6766 H            1    LIG   0.0000
  23 H            4.0406     5.6856     6.2303 H            1    LIG   0.0000
  24 H            1.9095     4.9534     5.5420 H            1    LIG   0.0000
  25 H            2.2278     6.3604     4.7768 H            1    LIG   0.0000
@<TRIPOS>BOND
   1        1        2 3
   2        2        3 1
   3        3        4 1
   4        4        5 1
   5        5        6 2
   6        6        7 1
   7        7        3 2
   8        7        8 1
   9        8        9 1
  10        9       10 2
  11       10       11 1
  12       11       12 1
  13       12        8 2
  14       12       13 1
  15       13       14 1
  16       14       15 1
  17       15       16 1
  18       16       11 1
  19        5       17 1
  20        6       18 1
  21        9       19 1
  22       14       20 1
  23       14       21 1
  24       15       22 1
  25       15       23 1
  26       16       24 1
  27       16       25 1

@<TRIPOS>MOLECULE

  25   27
SMALL
USER_CHARGES
@<TRIPOS>ATOM
   1 N1          -0.1400     1.0000     1.0000 N.1          1    LIG   0.0000
   2 C2           1.0000     1.0000     1.0000 C.1          1    LIG   0.0000
   3 C3           2.5215     1.0000     1.0000 C.2          1    LIG   0.0000
   4 S4           3.5227    -0.2138     0.3557 S.3          1    LIG   0.0000
   5 C5           5.0248     0.4992     0.7285 C.2          1    LIG   0.0000
   6 C6           4.7257     1.6713     1.3506 C.2          1    LIG   0.0000
   7 C7           3.3448     1.9625     1.5091 C.2          1    LIG   0.0000
   8 C8           2.8343     3.1600     2.1448 C.2          1    LIG   0.0000
   9 C9           2.9940     4.4772     1.6716 C.2          1    LIG   0.0000
  10 N10          2.3779     5.2216     2.5533 N.2          1    LIG   0.0000
  11 N11          1.8430     4.5277     3.5292 N.pl3        1    LIG   0.0000
  12 C12          2.1169     3.2267     3.3007 C.2          1    LIG   0.0000
  13 O13          1.6727     2.2896     4.1740 O.3          1    LIG   0.0000
  14 C14          0.4044     2.4361     4.8083 C.3          1    LIG   0.0000
  15 C15         -0.0592     3.8863     4.9215 C.3          1    LIG   0.0000
  16 C16          1.0627     4.9003     4.7187 C.3          1    LIG   0.0000
  17 H            5.9343     0.1332     0.5315 H            1    LIG   0.0000
  18 H            5.4377     2.2927     1.6778 H            1    LIG   0.0000
  19 H            3.4718     4.7765     0.8457 H            1    LIG   0.0000
  20 H            0.4653     2.0509     5.7291 H            1    LIG   0.0000
  21 H           -0.2745     1.9277     4.2785 H            1    LIG   0.0000
  22 H           -0.4497     4.0238     5.8318 H            1    LIG   0.0000
  23 H           -0.7622     4.0490     4.2292 H            1    LIG   0.0000
  24 H            0.6708     5.8112     4.5895 H            1    LIG   0.0000
  25 H            1.6587     4.9046     5.5216 H            1    LIG   0.0000
@<TRIPOS>BOND
   1        1        2 3
   2        2        3 1
   3        3        4 1
   4        4        5 1
   5        5        6 2
   6        6        7 1
   7        7        3 2
   8        7        8 1
   9        8        9 1
  10        9       10 2
  11       10       11 1
  12       11       12 1
  13       12        8 2
  14       12       13 1
  15       13       14 1
  16       14       15 1
  17       15       16 1
  18       16       11 1
  19        5       17 1
  20        6       18 1
  21        9       19 1
  22       14       20 1
  23       14       21 1
  24       15       22 1
  25       15       23 1
  26       16       24 1
  27       16       25 1

@<TRIPOS>MOLECULE

  25   27
SMALL
USER_CHARGES
@<TRIPOS>ATOM
   1 N1          -0.1400     1.0000     1.0000 N.1          1    LIG   0.0000
   2 C2           1.0000     1.0000     1.0000 C.1          1    LIG   0.0000
   3 C3           2.5215     1.0000     1.0000 C.2          1    LIG   0.0000
   4 S4           3.5227    -0.2138     0.3557 S.3          1    LIG   0.0000
   5 C5           5.0248     0.4992     0.7285 C.2          1    LIG   0.0000
   6 C6           4.7257     1.6713     1.3506 C.2          1    LIG   0.0000
   7 C7           3.3448     1.9625     1.5091 C.2          1    LIG   0.0000
   8 C8           2.8343     3.1600     2.1448 C.2          1    LIG   0.0000
   9 C9           2.9967     3.5075     3.5003 C.2          1    LIG   0.0000
  10 N10          2.3789     4.6538     3.6234 N.2          1    LIG   0.0000
  11 N11          1.8466     5.0749     2.5013 N.pl3        1    LIG   0.0000
  12 C12          2.1142     4.1533     1.5533 C.2          1    LIG   0.0000
  13 O13          1.6677     4.3504     0.2884 O.3          1    LIG   0.0000
  14 C14          1.6406     5.6605    -0.2727 C.3          1    LIG   0.0000
  15 C15          1.5373     6.7708     0.7701 C.3          1    LIG   0.0000
  16 C16          1.0807     6.2771     2.1398 C.3          1    LIG   0.0000
  17 H            5.9343     0.1332     0.5315 H            1    LIG   0.0000
  18 H            5.4377     2.2927     1.6778 H            1    LIG   0.0000
  19 H            3.4772     2.9925     4.2102 H            1    LIG   0.0000
  20 H            0.8517     5.7264    -0.8837 H            1    LIG   0.0000
  21 H            2.4809     5.7970    -0.7974 H            1    LIG   0.0000
  22 H            0.8815     7.4516     0.4440 H            1    LIG   0.0000
  23 H            2.4370     7.1958     0.8704 H            1    LIG   0.0000
  24 H            1.2377     6.9912     2.8220 H            1    LIG   0.0000
  25 H            0.1061     6.0555     2.1074 H            1    LIG   0.0000
@<TRIPOS>BOND
   1        1        2 3
   2        2        3 1
   3        3        4 1
   4        4        5 1
   5        5        6 2
   6        6        7 1
   7        7        3 2
   8        7        8 1
   9        8        9 1
  10        9       10 2
  11       10       11 1
  12       11       12 1
  13       12        8 2
  14       12       13 1
  15       13       14 1
  16       14       15 1
  17       15       16 1
  18       16       11 1
  19        5       17 1
  20        6       18 1
  21        9       19 1
  22       14       20 1
  23       14       21 1
  24       15       22 1
  25       15       23 1
  26       16       24 1
  27       16       25 1

@<TRIPOS>MOLECULE

  25   27
SMALL
USER_CHARGES
@<TRIPOS>ATOM
   1 N1          -0.1400     1.0000     1.0000 N.1          1    LIG   0.0000
   2 C2           1.0000     1.0000     1.0000 C.1          1    LIG   0.0000
   3 C3           2.5215     1.0000     1.0000 C.2          1    LIG   0.0000
   4 S4           3.5227    -0.2138     0.3557 S.3          1    LIG   0.0000
   5 C5           5.0248     0.4992     0.7285 C.2          1    LIG   0.0000
   6 C6           4.7257     1.6713     1.3506 C.2          1    LIG   0.0000
   7 C7           3.3448     1.9625     1.5091 C.2          1    LIG   0.0000
   8 C8           2.8343     3.1600     2.1448 C.2          1    LIG   0.0000
   9 C9           2.0107     3.2005     3.2869 C.2          1    LIG   0.0000
  10 N10          1.8019     4.4743     3.4983 N.2          1    LIG   0.0000
  11 N11          2.4012     5.2463     2.6237 N.pl3        1    LIG   0.0000
  12 C12          3.0564     4.4467     1.7571 C.2          1    LIG   0.0000
  13 O13          3.7629     5.0025     0.7422 O.3          1    LIG   0.0000
  14 C14          4.4712     6.2239     0.9386 C.3          1    LIG   0.0000
  15 C15          3.8928     7.0946     2.0514 C.3          1    LIG   0.0000
  16 C16          2.4728     6.7050     2.4516 C.3          1    LIG   0.0000
  17 H            5.9343     0.1332     0.5315 H            1    LIG   0.0000
  18 H            5.4377     2.2927     1.6778 H            1    LIG   0.0000
  19 H            1.6630     2.4276     3.8178 H            1    LIG   0.0000
  20 H            4.4464     6.7444     0.0850 H            1    LIG   0.0000
  21 H            5.4196     6.0058     1.1686 H            1    LIG   0.0000
  22 H            3.8845     8.0443     1.7386 H            1    LIG   0.0000
  23 H            4.4819     7.0136     2.8554 H            1    LIG   0.0000
  24 H            2.2323     7.1554     3.3114 H            1    LIG   0.0000
  25 H            1.8341     6.9890     1.7365 H            1    LIG   0.0000
@<TRIPOS>BOND
   1        1        2 3
   2        2        3 1
   3        3        4 1
   4        4        5 1
   5        5        6 2
   6        6        7 1
   7        7        3 2
   8        7        8 1
   9        8        9 1
  10        9       10 2
  11       10       11 1
  12       11       12 1
  13       12        8 2
  14       12       13 1
  15       13       14 1
  16       14       15 1
  17       15       16 1
  18       16       11 1
  19        5       17 1
  20        6       18 1
  21        9       19 1
  22       14       20 1
  23       14       21 1
  24       15       22 1
  25       15       23 1
  26       16       24 1
  27       16       25 1

@<TRIPOS>MOLECULE

  25   27
SMALL
USER_CHARGES
@<TRIPOS>ATOM
   1 N1          -0.1400     1.0000     1.0000 N.1          1    LIG   0.0000
   2 C2           1.0000     1.0000     1.0000 C.1          1    LIG   0.0000
   3 C3           2.5215     1.0000     1.0000 C.2          1    LIG   0.0000
   4 S4           3.5227    -0.2138     0.3557 S.3          1    LIG   0.0000
   5 C5           5.0248     0.4992     0.7285 C.2          1    LIG   0.0000
   6 C6           4.7257     1.6713     1.3506 C.2          1    LIG   0.0000
   7 C7           3.3448     1.9625     1.5091 C.2          1    LIG   0.0000
   8 C8           2.8343     3.1600     2.1448 C.2          1    LIG   0.0000
   9 C9           1.6189     3.2660     2.8491 C.2          1    LIG   0.0000
  10 N10          1.5727     4.5127     3.2420 N.2          1    LIG   0.0000
  11 N11          2.6206     5.2086     2.8708 N.pl3        1    LIG   0.0000
  12 C12          3.4308     4.3841     2.1755 C.2          1    LIG   0.0000
  13 O13          4.5951     4.8633     1.6726 O.3          1    LIG   0.0000
  14 C14          5.3554     5.8248     2.4004 C.3          1    LIG   0.0000
  15 C15          4.5190     6.6659     3.3615 C.3          1    LIG   0.0000
  16 C16          3.0217     6.6089     3.0733 C.3          1    LIG   0.0000
  17 H            5.9343     0.1332     0.5315 H            1    LIG   0.0000
  18 H            5.4377     2.2927     1.6778 H            1    LIG   0.0000
  19 H            0.9423     2.5480     3.0124 H            1    LIG   0.0000
  20 H            5.7979     6.4384     1.7464 H            1    LIG   0.0000
  21 H            6.0534     5.3414     2.9288 H            1    LIG   0.0000
  22 H            4.8187     7.6175     3.2926 H            1    LIG   0.0000
  23 H            4.6754     6.3336     4.2916 H            1    LIG   0.0000
  24 H            2.5175     6.9926     3.8469 H            1    LIG   0.0000
  25 H            2.8196     7.1371     2.2486 H            1    LIG   0.0000
@<TRIPOS>BOND
   1        1        2 3
   2        2        3 1
   3        3        4 1
   4        4        5 1
   5        5        6 2
   6        6        7 1
   7        7        3 2
   8        7        8 1
   9        8        9 1
  10        9       10 2
  11       10       11 1
  12       11       12 1
  13       12        8 2
  14       12       13 1
  15       13       14 1
  16       14       15 1
  17       15       16 1
  18       16       11 1
  19        5       17 1
  20        6       18 1
  21        9       19 1
  22       14       20 1
  23       14       21 1
  24       15       22 1
  25       15       23 1
  26       16       24 1
  27       16       25 1

@<TRIPOS>MOLECULE

  25   27
SMALL
USER_CHARGES
@<TRIPOS>ATOM
   1 N1          -0.1400     1.0000     1.0000 N.1          1    LIG   0.0000
   2 C2           1.0000     1.0000     1.0000 C.1          1    LIG   0.0000
   3 C3           2.5215     1.0000     1.0000 C.2          1    LIG   0.0000
   4 S4           3.5227    -0.2138     0.3557 S.3          1    LIG   0.0000
   5 C5           5.0248     0.4992     0.7285 C.2          1    LIG   0.0000
   6 C6           4.7257     1.6713     1.3506 C.2          1    LIG   0.0000
   7 C7           3.3448     1.9625     1.5091 C.2          1    LIG   0.0000
   8 C8           2.8343     3.1600     2.1448 C.2          1    LIG   0.0000
   9 C9           2.0080     4.1271     1.5395 C.2          1    LIG   0.0000
  10 N10          1.8009     5.0168     2.4757 N.2          1    LIG   0.0000
  11 N11          2.3978     4.7234     3.6060 N.pl3        1    LIG   0.0000
  12 C12          3.0590     3.5613     3.4269 C.2          1    LIG   0.0000
  13 O13          3.7677     3.0334     4.4551 O.3          1    LIG   0.0000
  14 C14          3.2899     3.1428     5.7937 C.3          1    LIG   0.0000
  15 C15          2.3672     4.3382     6.0183 C.3          1    LIG   0.0000
  16 C16          2.4557     5.3894     4.9158 C.3          1    LIG   0.0000
  17 H            5.9343     0.1332     0.5315 H            1    LIG   0.0000
  18 H            5.4377     2.2927     1.6778 H            1    LIG   0.0000
  19 H            1.6579     4.1322     0.6029 H            1    LIG   0.0000
  20 H            4.0772     3.2322     6.4039 H            1    LIG   0.0000
  21 H            2.7867     2.3085     6.0189 H            1    LIG   0.0000
  22 H            2.6124     4.7688     6.8869 H            1    LIG   0.0000
  23 H            1.4249     4.0066     6.0649 H            1    LIG   0.0000
  24 H            1.6906     6.0278     5.0004 H            1    LIG   0.0000
  25 H            3.3178     5.8893     4.9989 H            1    LIG   0.0000
@<TRIPOS>BOND
   1        1        2 3
   2        2        3 1
   3        3        4 1
   4        4        5 1
   5        5        6 2
   6        6        7 1
   7        7        3 2
   8        7        8 1
   9        8        9 1
  10        9       10 2
  11       10       11 1
  12       11       12 1
  13       12        8 2
  14       12       13 1
  15       13       14 1
  16       14       15 1
  17       15       16 1
  18       16       11 1
  19        5       17 1
  20        6       18 1
  21        9       19 1
  22       14       20 1
  23       14       21 1
  24       15       22 1
  25       15       23 1
  26       16       24 1
  27       16       25 1

@<TRIPOS>MOLECULE

  25   27
SMALL
USER_CHARGES
@<TRIPOS>ATOM
   1 N1          -0.1400     1.0000     1.0000 N.1          1    LIG   0.0000
   2 C2           1.0000     1.0000     1.0000 C.1          1    LIG   0.0000
   3 C3           2.5215     1.0000     1.0000 C.2          1    LIG   0.0000
   4 S4           3.5227    -0.2138     0.3557 S.3          1    LIG   0.0000
   5 C5           5.0248     0.4992     0.7285 C.2          1    LIG   0.0000
   6 C6           4.7257     1.6713     1.3506 C.2          1    LIG   0.0000
   7 C7           3.3448     1.9625     1.5091 C.2          1    LIG   0.0000
   8 C8           2.8343     3.1600     2.1448 C.2          1    LIG   0.0000
   9 C9           1.6174     3.8009     1.8403 C.2          1    LIG   0.0000
  10 N10          1.5722     4.8259     2.6516 N.2          1    LIG   0.0000
  11 N11          2.6186     4.9067     3.4379 N.pl3        1    LIG   0.0000
  12 C12          3.4323     3.8729     3.1395 C.2          1    LIG   0.0000
  13 O13          4.5978     3.7264     3.8163 O.3          1    LIG   0.0000
  14 C14          4.6734     4.0459     5.2035 C.3          1    LIG   0.0000
  15 C15          3.6382     5.0746     5.6517 C.3          1    LIG   0.0000
  16 C16          3.0118     5.8493     4.4960 C.3          1    LIG   0.0000
  17 H            5.9343     0.1332     0.5315 H            1    LIG   0.0000
  18 H            5.4377     2.2927     1.6778 H            1    LIG   0.0000
  19 H            0.9393     3.5322     1.1562 H            1    LIG   0.0000
  20 H            5.5847     4.4106     5.3946 H            1    LIG   0.0000
  21 H            4.5333     3.2068     5.7291 H            1    LIG   0.0000
  22 H            4.0843     5.7264     6.2650 H            1    LIG   0.0000
  23 H            2.9105     4.5976     6.1445 H            1    LIG   0.0000
  24 H            2.2047     6.3416     4.8220 H            1    LIG   0.0000
  25 H            3.6761     6.5022     4.1322 H            1    LIG   0.0000
@<TRIPOS>BOND
   1        1        2 3
   2        2        3 1
   3        3        4 1
   4        4        5 1
   5        5        6 2
   6        6        7 1
   7        7        3 2
   8        7        8 1
   9        8        9 1
  10        9       10 2
  11       10       11 1
  12       11       12 1
  13       12        8 2
  14       12       13 1
  15       13       14 1
  16       14       15 1
  17       15       16 1
  18       16       11 1
  19        5       17 1
  20        6       18 1
  21        9       19 1
  22       14       20 1
  23       14       21 1
  24       15       22 1
  25       15       23 1
  26       16       24 1
  27       16       25 1

