@<TRIPOS>MOLECULE
*****
 25 27 0 0 0
SMALL
USER_CHARGES

@<TRIPOS>ATOM
      1 N1         -0.1400    1.0000    1.0000 N.1     1  LIG1        0.0000
      2 C2          1.0000    1.0000    1.0000 C.1     1  LIG1        0.0000
      3 C3          2.5215    1.0000    1.0000 C.2     1  LIG1        0.0000
      4 S4          3.5227   -0.2138    0.3557 S.3     1  LIG1        0.0000
      5 C5          5.0248    0.4992    0.7285 C.2     1  LIG1        0.0000
      6 C6          4.7257    1.6713    1.3506 C.2     1  LIG1        0.0000
      7 C7          3.3448    1.9625    1.5091 C.2     1  LIG1        0.0000
      8 C8          2.8343    3.1600    2.1448 C.2     1  LIG1        0.0000
      9 C9          1.6174    3.8009    1.8403 C.2     1  LIG1        0.0000
     10 N10         1.5722    4.8259    2.6516 N.2     1  LIG1        0.0000
     11 N11         2.6186    4.9067    3.4379 N.pl3   1  LIG1        0.0000
     12 C12         3.4323    3.8729    3.1395 C.2     1  LIG1        0.0000
     13 O13         4.5978    3.7264    3.8163 O.3     1  LIG1        0.0000
     14 C14         4.6734    4.0459    5.2035 C.3     1  LIG1        0.0000
     15 C15         3.6382    5.0746    5.6517 C.3     1  LIG1        0.0000
     16 C16         3.0118    5.8493    4.4960 C.3     1  LIG1        0.0000
     17 H           5.9343    0.1332    0.5315 H       1  LIG1        0.0000
     18 H           5.4377    2.2927    1.6778 H       1  LIG1        0.0000
     19 H           0.9393    3.5322    1.1562 H       1  LIG1        0.0000
     20 H           5.5847    4.4106    5.3946 H       1  LIG1        0.0000
     21 H           4.5333    3.2068    5.7291 H       1  LIG1        0.0000
     22 H           4.0843    5.7264    6.2650 H       1  LIG1        0.0000
     23 H           2.9105    4.5976    6.1445 H       1  LIG1        0.0000
     24 H           2.2047    6.3416    4.8220 H       1  LIG1        0.0000
     25 H           3.6761    6.5022    4.1322 H       1  LIG1        0.0000
@<TRIPOS>BOND
     1     1     2    3
     2     2     3    1
     3     3     4    1
     4     4     5    1
     5     5     6    2
     6     6     7    1
     7     7     3    2
     8     7     8    1
     9     8     9    1
    10     9    10    2
    11    10    11    1
    12    11    12    1
    13    12     8    2
    14    12    13    1
    15    13    14    1
    16    14    15    1
    17    15    16    1
    18    16    11    1
    19     5    17    1
    20     6    18    1
    21     9    19    1
    22    14    20    1
    23    14    21    1
    24    15    22    1
    25    15    23    1
    26    16    24    1
    27    16    25    1
