@<TRIPOS>MOLECULE
*****
 25 27 0 0 0
SMALL
USER_CHARGES

@<TRIPOS>ATOM
      1 N1         -0.1400    1.0000    1.0000 N.1     1  LIG1        0.0000
      2 C2          1.0000    1.0000    1.0000 C.1     1  LIG1        0.0000
      3 C3          2.5215    1.0000    1.0000 C.2     1  LIG1        0.0000
      4 S4          3.5227   -0.2138    0.3557 S.3     1  LIG1        0.0000
      5 C5          5.0248    0.4992    0.7285 C.2     1  LIG1        0.0000
      6 C6          4.7257    1.6713    1.3506 C.2     1  LIG1        0.0000
      7 C7          3.3448    1.9625    1.5091 C.2     1  LIG1        0.0000
      8 C8          2.8343    3.1600    2.1448 C.2     1  LIG1        0.0000
      9 C9          2.9967    3.5075    3.5003 C.2     1  LIG1        0.0000
     10 N10         2.3789    4.6538    3.6234 N.2     1  LIG1        0.0000
     11 N11         1.8466    5.0749    2.5013 N.pl3   1  LIG1        0.0000
     12 C12         2.1142    4.1533    1.5533 C.2     1  LIG1        0.0000
     13 O13         1.6677    4.3504    0.2884 O.3     1  LIG1        0.0000
     14 C14         1.6406    5.6605   -0.2727 C.3     1  LIG1        0.0000
     15 C15         1.5373    6.7708    0.7701 C.3     1  LIG1        0.0000
     16 C16         1.0807    6.2771    2.1398 C.3     1  LIG1        0.0000
     17 H           5.9343    0.1332    0.5315 H       1  LIG1        0.0000
     18 H           5.4377    2.2927    1.6778 H       1  LIG1        0.0000
     19 H           3.4772    2.9925    4.2102 H       1  LIG1        0.0000
     20 H           0.8517    5.7264   -0.8837 H       1  LIG1        0.0000
     21 H           2.4809    5.7970   -0.7974 H       1  LIG1        0.0000
     22 H           0.8815    7.4516    0.4440 H       1  LIG1        0.0000
     23 H           2.4370    7.1958    0.8704 H       1  LIG1        0.0000
     24 H           1.2377    6.9912    2.8220 H       1  LIG1        0.0000
     25 H           0.1061    6.0555    2.1074 H       1  LIG1        0.0000
@<TRIPOS>BOND
     1     1     2    3
     2     2     3    1
     3     3     4    1
     4     4     5    1
     5     5     6    2
     6     6     7    1
     7     7     3    2
     8     7     8    1
     9     8     9    1
    10     9    10    2
    11    10    11    1
    12    11    12    1
    13    12     8    2
    14    12    13    1
    15    13    14    1
    16    14    15    1
    17    15    16    1
    18    16    11    1
    19     5    17    1
    20     6    18    1
    21     9    19    1
    22    14    20    1
    23    14    21    1
    24    15    22    1
    25    15    23    1
    26    16    24    1
    27    16    25    1
