@<TRIPOS>MOLECULE
*****
 25 27 0 0 0
SMALL
USER_CHARGES

@<TRIPOS>ATOM
      1 N1         -0.1400    1.0000    1.0000 N.1     1  LIG1        0.0000
      2 C2          1.0000    1.0000    1.0000 C.1     1  LIG1        0.0000
      3 C3          2.5215    1.0000    1.0000 C.2     1  LIG1        0.0000
      4 S4          3.5227   -0.2138    0.3557 S.3     1  LIG1        0.0000
      5 C5          5.0248    0.4992    0.7285 C.2     1  LIG1        0.0000
      6 C6          4.7257    1.6713    1.3506 C.2     1  LIG1        0.0000
      7 C7          3.3448    1.9625    1.5091 C.2     1  LIG1        0.0000
      8 C8          2.8345    3.1597    2.1447 C.2     1  LIG1        0.0000
      9 C9          2.0045    4.1227    1.5350 C.2     1  LIG1        0.0000
     10 N10         1.7918    5.0250    2.4581 N.2     1  LIG1        0.0000
     11 N11         2.4102    4.7193    3.5775 N.pl3   1  LIG1        0.0000
     12 C12         3.0669    3.5492    3.4278 C.2     1  LIG1        0.0000
     13 O13         3.7823    3.0187    4.4413 O.3     1  LIG1        0.0000
     14 C14         4.4948    3.8833    5.3177 C.3     1  LIG1        0.0000
     15 C15         3.9600    5.3095    5.3073 C.3     1  LIG1        0.0000
     16 C16         2.5000    5.4028    4.8717 C.3     1  LIG1        0.0000
     17 H           5.9343    0.1332    0.5315 H       1  LIG1        0.0000
     18 H           5.4377    2.2927    1.6778 H       1  LIG1        0.0000
     19 H           1.6538    4.1172    0.5985 H       1  LIG1        0.0000
     20 H           5.4548    3.9004    5.0382 H       1  LIG1        0.0000
     21 H           4.4248    3.5230    6.2479 H       1  LIG1        0.0000
     22 H           4.5148    5.8521    4.6766 H       1  LIG1        0.0000
     23 H           4.0406    5.6856    6.2303 H       1  LIG1        0.0000
     24 H           1.9095    4.9534    5.5420 H       1  LIG1        0.0000
     25 H           2.2278    6.3604    4.7768 H       1  LIG1        0.0000
@<TRIPOS>BOND
     1     1     2    3
     2     2     3    1
     3     3     4    1
     4     4     5    1
     5     5     6    2
     6     6     7    1
     7     7     3    2
     8     7     8    1
     9     8     9    1
    10     9    10    2
    11    10    11    1
    12    11    12    1
    13    12     8    2
    14    12    13    1
    15    13    14    1
    16    14    15    1
    17    15    16    1
    18    16    11    1
    19     5    17    1
    20     6    18    1
    21     9    19    1
    22    14    20    1
    23    14    21    1
    24    15    22    1
    25    15    23    1
    26    16    24    1
    27    16    25    1
