@<TRIPOS>MOLECULE
*****
 25 27 0 0 0
SMALL
USER_CHARGES

@<TRIPOS>ATOM
      1 N1         -0.1400    1.0000    1.0000 N.1     1  LIG1        0.0000
      2 C2          1.0000    1.0000    1.0000 C.1     1  LIG1        0.0000
      3 C3          2.5215    1.0000    1.0000 C.2     1  LIG1        0.0000
      4 S4          3.5227   -0.2138    0.3557 S.3     1  LIG1        0.0000
      5 C5          5.0248    0.4992    0.7285 C.2     1  LIG1        0.0000
      6 C6          4.7257    1.6713    1.3506 C.2     1  LIG1        0.0000
      7 C7          3.3448    1.9625    1.5091 C.2     1  LIG1        0.0000
      8 C8          2.8345    3.1597    2.1447 C.2     1  LIG1        0.0000
      9 C9          2.9941    4.4757    1.6645 C.2     1  LIG1        0.0000
     10 N10         2.3873    5.2354    2.5398 N.2     1  LIG1        0.0000
     11 N11         1.8710    4.5220    3.5163 N.pl3   1  LIG1        0.0000
     12 C12         2.1183    3.2123    3.3008 C.2     1  LIG1        0.0000
     13 O13         1.6886    2.2717    4.1674 O.3     1  LIG1        0.0000
     14 C14         1.6872    2.5576    5.5607 C.3     1  LIG1        0.0000
     15 C15         1.6955    4.0512    5.8593 C.3     1  LIG1        0.0000
     16 C16         1.1264    4.8965    4.7227 C.3     1  LIG1        0.0000
     17 H           5.9343    0.1332    0.5315 H       1  LIG1        0.0000
     18 H           5.4377    2.2927    1.6778 H       1  LIG1        0.0000
     19 H           3.4690    4.7660    0.8337 H       1  LIG1        0.0000
     20 H           2.5004    2.1455    5.9718 H       1  LIG1        0.0000
     21 H           0.8674    2.1552    5.9682 H       1  LIG1        0.0000
     22 H           2.6394    4.3366    6.0254 H       1  LIG1        0.0000
     23 H           1.1487    4.2139    6.6806 H       1  LIG1        0.0000
     24 H           0.1527    4.7035    4.6022 H       1  LIG1        0.0000
     25 H           1.2517    5.8690    4.9187 H       1  LIG1        0.0000
@<TRIPOS>BOND
     1     1     2    3
     2     2     3    1
     3     3     4    1
     4     4     5    1
     5     5     6    2
     6     6     7    1
     7     7     3    2
     8     7     8    1
     9     8     9    1
    10     9    10    2
    11    10    11    1
    12    11    12    1
    13    12     8    2
    14    12    13    1
    15    13    14    1
    16    14    15    1
    17    15    16    1
    18    16    11    1
    19     5    17    1
    20     6    18    1
    21     9    19    1
    22    14    20    1
    23    14    21    1
    24    15    22    1
    25    15    23    1
    26    16    24    1
    27    16    25    1
