@<TRIPOS>MOLECULE

  19   20
SMALL
USER_CHARGES
@<TRIPOS>ATOM
   1 O1           0.3750     1.4573     1.9812 O.co2        1    LIG   0.0000
   2 C2           1.0000     1.0000     1.0000 C.2          1    LIG   0.0000
   3 O3           0.3950     0.5573     0.0502 O.co2        1    LIG  -1.0000
   4 C4           2.4477     1.0000     1.0000 C.2          1    LIG   0.0000
   5 C5           3.2668     0.5363     0.0111 C.2          1    LIG   0.0000
   6 C6           4.6437     0.6588     0.3310 C.2          1    LIG   0.0000
   7 C7           4.9130     1.2428     1.5430 C.2          1    LIG   0.0000
   8 S8           3.4177     1.5920     2.2701 S.3          1    LIG   0.0000
   9 C9           6.2041     1.6032     2.2579 C.3          1    LIG   0.0000
  10 C10          7.3235     0.7404     1.7050 C.3          1    LIG   0.0000
  11 S11          7.2754     0.9801    -0.0866 S.3          1    LIG   0.0000
  12 C12          5.7444     0.1702    -0.5953 C.3          1    LIG   0.0000
  13 H            2.9315     0.1508    -0.8486 H            1    LIG   0.0000
  14 H            6.1035     1.4362     3.2387 H            1    LIG   0.0000
  15 H            6.4158     2.5684     2.1042 H            1    LIG   0.0000
  16 H            8.2057     1.0335     2.0735 H            1    LIG   0.0000
  17 H            7.1697    -0.2209     1.9335 H            1    LIG   0.0000
  18 H            5.8406    -0.8222    -0.5184 H            1    LIG   0.0000
  19 H            5.5276     0.4117    -1.5412 H            1    LIG   0.0000
@<TRIPOS>BOND
   1        1        2 ar
   2        2        3 ar
   3        2        4 1
   4        4        5 2
   5        5        6 1
   6        6        7 2
   7        7        8 1
   8        8        4 1
   9        7        9 1
  10        9       10 1
  11       10       11 1
  12       11       12 1
  13       12        6 1
  14        5       13 1
  15        9       14 1
  16        9       15 1
  17       10       16 1
  18       10       17 1
  19       12       18 1
  20       12       19 1

@<TRIPOS>MOLECULE

  19   20
SMALL
USER_CHARGES
@<TRIPOS>ATOM
   1 O1           0.3750     1.4573     1.9812 O.co2        1    LIG   0.0000
   2 C2           1.0000     1.0000     1.0000 C.2          1    LIG   0.0000
   3 O3           0.3950     0.5573     0.0502 O.co2        1    LIG  -1.0000
   4 C4           2.4477     1.0000     1.0000 C.2          1    LIG   0.0000
   5 C5           3.2668     1.6246     0.1040 C.2          1    LIG   0.0000
   6 C6           4.6437     1.4088     0.3700 C.2          1    LIG   0.0000
   7 C7           4.9130     0.6512     1.4818 C.2          1    LIG   0.0000
   8 S8           3.4177     0.1961     2.1477 S.3          1    LIG   0.0000
   9 C9           6.2041     0.2122     2.1514 C.3          1    LIG   0.0000
  10 C10          7.3235     0.2596     1.1276 C.3          1    LIG   0.0000
  11 S11          7.2754     1.9311     0.4395 S.3          1    LIG   0.0000
  12 C12          5.7444     1.9667    -0.5163 C.3          1    LIG   0.0000
  13 H            2.9315     2.1763    -0.6597 H            1    LIG   0.0000
  14 H            6.1035    -0.7207     2.4971 H            1    LIG   0.0000
  15 H            6.4158     0.8280     2.9103 H            1    LIG   0.0000
  16 H            8.2057     0.0870     1.5658 H            1    LIG   0.0000
  17 H            7.1697    -0.4189     0.4094 H            1    LIG   0.0000
  18 H            5.8406     1.4039    -1.3373 H            1    LIG   0.0000
  19 H            5.5276     2.9066    -0.7801 H            1    LIG   0.0000
@<TRIPOS>BOND
   1        1        2 ar
   2        2        3 ar
   3        2        4 1
   4        4        5 2
   5        5        6 1
   6        6        7 2
   7        7        8 1
   8        8        4 1
   9        7        9 1
  10        9       10 1
  11       10       11 1
  12       11       12 1
  13       12        6 1
  14        5       13 1
  15        9       14 1
  16        9       15 1
  17       10       16 1
  18       10       17 1
  19       12       18 1
  20       12       19 1

@<TRIPOS>MOLECULE

  19   20
SMALL
USER_CHARGES
@<TRIPOS>ATOM
   1 O1           0.3750     1.4573     1.9812 O.co2        1    LIG   0.0000
   2 C2           1.0000     1.0000     1.0000 C.2          1    LIG   0.0000
   3 O3           0.3950     0.5573     0.0502 O.co2        1    LIG  -1.0000
   4 C4           2.4477     1.0000     1.0000 C.2          1    LIG   0.0000
   5 C5           3.2668    -0.0883     0.9071 C.2          1    LIG   0.0000
   6 C6           4.6437     0.2500     0.9610 C.2          1    LIG   0.0000
   7 C7           4.9130     1.5916     1.0612 C.2          1    LIG   0.0000
   8 S8           3.4177     2.3959     1.1224 S.3          1    LIG   0.0000
   9 C9           6.2041     2.3910     1.1066 C.3          1    LIG   0.0000
  10 C10          7.3235     1.4807     1.5773 C.3          1    LIG   0.0000
  11 S11          7.2754     0.0490     0.4739 S.3          1    LIG   0.0000
  12 C12          5.7444    -0.7965     0.9210 C.3          1    LIG   0.0000
  13 H            2.9315    -1.0255     0.8112 H            1    LIG   0.0000
  14 H            6.1035     3.1569     1.7416 H            1    LIG   0.0000
  15 H            6.4158     2.7404     0.1938 H            1    LIG   0.0000
  16 H            8.2057     1.9465     1.5078 H            1    LIG   0.0000
  17 H            7.1697     1.1979     2.5241 H            1    LIG   0.0000
  18 H            5.8406    -1.2261     1.8189 H            1    LIG   0.0000
  19 H            5.5276    -1.4949     0.2389 H            1    LIG   0.0000
@<TRIPOS>BOND
   1        1        2 ar
   2        2        3 ar
   3        2        4 1
   4        4        5 2
   5        5        6 1
   6        6        7 2
   7        7        8 1
   8        8        4 1
   9        7        9 1
  10        9       10 1
  11       10       11 1
  12       11       12 1
  13       12        6 1
  14        5       13 1
  15        9       14 1
  16        9       15 1
  17       10       16 1
  18       10       17 1
  19       12       18 1
  20       12       19 1

@<TRIPOS>MOLECULE

  19   20
SMALL
USER_CHARGES
@<TRIPOS>ATOM
   1 O1           0.3750     1.4573     1.9812 O.co2        1    LIG   0.0000
   2 C2           1.0000     1.0000     1.0000 C.2          1    LIG   0.0000
   3 O3           0.3950     0.5573     0.0502 O.co2        1    LIG  -1.0000
   4 C4           2.4519     1.0000     1.0000 C.2          1    LIG   0.0000
   5 C5           3.2720     0.5426     0.0083 C.2          1    LIG   0.0000
   6 C6           4.6398     0.7274     0.3418 C.2          1    LIG   0.0000
   7 C7           4.9143     1.2803     1.5627 C.2          1    LIG   0.0000
   8 S8           3.4005     1.5967     2.2801 S.3          1    LIG   0.0000
   9 C9           6.1806     1.6255     2.3331 C.3          1    LIG   0.0000
  10 C10          7.3060     1.7466     1.3199 C.3          1    LIG   0.0000
  11 S11          7.2684     0.1846     0.4107 S.3          1    LIG   0.0000
  12 C12          5.7712     0.3397    -0.5922 C.3          1    LIG   0.0000
  13 H            2.9502     0.1301    -0.8439 H            1    LIG   0.0000
  14 H            6.3889     0.9019     2.9912 H            1    LIG   0.0000
  15 H            6.0612     2.4922     2.8174 H            1    LIG   0.0000
  16 H            7.1454     2.5179     0.7040 H            1    LIG   0.0000
  17 H            8.1853     1.8659     1.7811 H            1    LIG   0.0000
  18 H            5.5648    -0.5324    -1.0360 H            1    LIG   0.0000
  19 H            5.8975     1.0463    -1.2884 H            1    LIG   0.0000
@<TRIPOS>BOND
   1        1        2 ar
   2        2        3 ar
   3        2        4 1
   4        4        5 2
   5        5        6 1
   6        6        7 2
   7        7        8 1
   8        8        4 1
   9        7        9 1
  10        9       10 1
  11       10       11 1
  12       11       12 1
  13       12        6 1
  14        5       13 1
  15        9       14 1
  16        9       15 1
  17       10       16 1
  18       10       17 1
  19       12       18 1
  20       12       19 1

@<TRIPOS>MOLECULE

  19   20
SMALL
USER_CHARGES
@<TRIPOS>ATOM
   1 O1           0.3750     1.4573     1.9812 O.co2        1    LIG   0.0000
   2 C2           1.0000     1.0000     1.0000 C.2          1    LIG   0.0000
   3 O3           0.3950     0.5573     0.0502 O.co2        1    LIG  -1.0000
   4 C4           2.4519     1.0000     1.0000 C.2          1    LIG   0.0000
   5 C5           3.2720     1.6301     0.1080 C.2          1    LIG   0.0000
   6 C6           4.6398     1.4338     0.4349 C.2          1    LIG   0.0000
   7 C7           4.9143     0.6529     1.5241 C.2          1    LIG   0.0000
   8 S8           3.4005     0.1897     2.1568 S.3          1    LIG   0.0000
   9 C9           6.1806     0.1582     2.2082 C.3          1    LIG   0.0000
  10 C10          7.3060     1.0963     1.8066 C.3          1    LIG   0.0000
  11 S11          7.2684     1.1026    -0.0008 S.3          1    LIG   0.0000
  12 C12          5.7712     2.0487    -0.3680 C.3          1    LIG   0.0000
  13 H            2.9502     2.1619    -0.6753 H            1    LIG   0.0000
  14 H            6.3889    -0.7735     1.9107 H            1    LIG   0.0000
  15 H            6.0612     0.1722     3.2010 H            1    LIG   0.0000
  16 H            7.1454     2.0153     2.1665 H            1    LIG   0.0000
  17 H            8.1853     0.7565     2.1404 H            1    LIG   0.0000
  18 H            5.5648     1.9970    -1.3451 H            1    LIG   0.0000
  19 H            5.8975     3.0050    -0.1041 H            1    LIG   0.0000
@<TRIPOS>BOND
   1        1        2 ar
   2        2        3 ar
   3        2        4 1
   4        4        5 2
   5        5        6 1
   6        6        7 2
   7        7        8 1
   8        8        4 1
   9        7        9 1
  10        9       10 1
  11       10       11 1
  12       11       12 1
  13       12        6 1
  14        5       13 1
  15        9       14 1
  16        9       15 1
  17       10       16 1
  18       10       17 1
  19       12       18 1
  20       12       19 1

@<TRIPOS>MOLECULE

  19   20
SMALL
USER_CHARGES
@<TRIPOS>ATOM
   1 O1           0.3750     1.4573     1.9812 O.co2        1    LIG   0.0000
   2 C2           1.0000     1.0000     1.0000 C.2          1    LIG   0.0000
   3 O3           0.3950     0.5573     0.0502 O.co2        1    LIG  -1.0000
   4 C4           2.4519     1.0000     1.0000 C.2          1    LIG   0.0000
   5 C5           3.2720    -0.0875     0.9003 C.2          1    LIG   0.0000
   6 C6           4.6398     0.2937     0.9069 C.2          1    LIG   0.0000
   7 C7           4.9143     1.6274     1.0386 C.2          1    LIG   0.0000
   8 S8           3.4005     2.4069     1.1233 S.3          1    LIG   0.0000
   9 C9           6.1806     2.4673     1.1249 C.3          1    LIG   0.0000
  10 C10          7.3060     1.6504     0.5133 C.3          1    LIG   0.0000
  11 S11          7.2684     0.0819     1.4115 S.3          1    LIG   0.0000
  12 C12          5.7712    -0.7090     0.7757 C.3          1    LIG   0.0000
  13 H            2.9502    -1.0318     0.8314 H            1    LIG   0.0000
  14 H            6.3889     2.6754     2.0805 H            1    LIG   0.0000
  15 H            6.0612     3.3200     0.6164 H            1    LIG   0.0000
  16 H            7.1454     1.5026    -0.4625 H            1    LIG   0.0000
  17 H            8.1853     2.1094     0.6407 H            1    LIG   0.0000
  18 H            5.5648    -1.5294     1.3091 H            1    LIG   0.0000
  19 H            5.8975    -0.9587    -0.1843 H            1    LIG   0.0000
@<TRIPOS>BOND
   1        1        2 ar
   2        2        3 ar
   3        2        4 1
   4        4        5 2
   5        5        6 1
   6        6        7 2
   7        7        8 1
   8        8        4 1
   9        7        9 1
  10        9       10 1
  11       10       11 1
  12       11       12 1
  13       12        6 1
  14        5       13 1
  15        9       14 1
  16        9       15 1
  17       10       16 1
  18       10       17 1
  19       12       18 1
  20       12       19 1

@<TRIPOS>MOLECULE

  19   20
SMALL
USER_CHARGES
@<TRIPOS>ATOM
   1 O1           0.3750     1.4573     1.9812 O.co2        1    LIG   0.0000
   2 C2           1.0000     1.0000     1.0000 C.2          1    LIG   0.0000
   3 O3           0.3950     0.5573     0.0502 O.co2        1    LIG  -1.0000
   4 C4           2.4538     1.0000     1.0000 C.2          1    LIG   0.0000
   5 C5           3.2970     0.5436     0.0266 C.2          1    LIG   0.0000
   6 C6           4.6641     0.7057     0.3798 C.2          1    LIG   0.0000
   7 C7           4.9235     1.2837     1.5917 C.2          1    LIG   0.0000
   8 S8           3.3977     1.5983     2.2836 S.3          1    LIG   0.0000
   9 C9           6.2338     1.5680     2.3012 C.3          1    LIG   0.0000
  10 C10          7.0378     0.2760     2.2919 C.3          1    LIG   0.0000
  11 S11          6.7944    -0.6880     0.7755 S.3          1    LIG   0.0000
  12 C12          5.8660     0.2900    -0.4262 C.3          1    LIG   0.0000
  13 H            2.9877     0.1417    -0.8352 H            1    LIG   0.0000
  14 H            6.0585     1.8561     3.2426 H            1    LIG   0.0000
  15 H            6.7351     2.2873     1.8203 H            1    LIG   0.0000
  16 H            8.0083     0.5024     2.3750 H            1    LIG   0.0000
  17 H            6.7574    -0.2810     3.0737 H            1    LIG   0.0000
  18 H            5.6011    -0.2610    -1.2175 H            1    LIG   0.0000
  19 H            6.3909     1.0838    -0.7333 H            1    LIG   0.0000
@<TRIPOS>BOND
   1        1        2 ar
   2        2        3 ar
   3        2        4 1
   4        4        5 2
   5        5        6 1
   6        6        7 2
   7        7        8 1
   8        8        4 1
   9        7        9 1
  10        9       10 1
  11       10       11 1
  12       11       12 1
  13       12        6 1
  14        5       13 1
  15        9       14 1
  16        9       15 1
  17       10       16 1
  18       10       17 1
  19       12       18 1
  20       12       19 1

@<TRIPOS>MOLECULE

  19   20
SMALL
USER_CHARGES
@<TRIPOS>ATOM
   1 O1           0.3750     1.4573     1.9812 O.co2        1    LIG   0.0000
   2 C2           1.0000     1.0000     1.0000 C.2          1    LIG   0.0000
   3 O3           0.3950     0.5573     0.0502 O.co2        1    LIG  -1.0000
   4 C4           2.4538     1.0000     1.0000 C.2          1    LIG   0.0000
   5 C5           3.2970     1.6147     0.1181 C.2          1    LIG   0.0000
   6 C6           4.6641     1.3900     0.4350 C.2          1    LIG   0.0000
   7 C7           4.9235     0.6294     1.5415 C.2          1    LIG   0.0000
   8 S8           3.3977     0.1875     2.1600 S.3          1    LIG   0.0000
   9 C9           6.2338     0.1571     2.1425 C.3          1    LIG   0.0000
  10 C10          7.0378    -0.4809     1.0189 C.3          1    LIG   0.0000
  11 S11          6.7944     0.3504    -0.5740 S.3          1    LIG   0.0000
  12 C12          5.8660     1.8801    -0.3279 C.3          1    LIG   0.0000
  13 H            2.9877     2.1602    -0.6610 H            1    LIG   0.0000
  14 H            6.0585    -0.5141     2.8627 H            1    LIG   0.0000
  15 H            6.7351     0.9333     2.5250 H            1    LIG   0.0000
  16 H            8.0083    -0.4396     1.2565 H            1    LIG   0.0000
  17 H            6.7574    -1.4364     0.9274 H            1    LIG   0.0000
  18 H            5.6011     2.2900    -1.2008 H            1    LIG   0.0000
  19 H            6.3909     2.5430     0.2059 H            1    LIG   0.0000
@<TRIPOS>BOND
   1        1        2 ar
   2        2        3 ar
   3        2        4 1
   4        4        5 2
   5        5        6 1
   6        6        7 2
   7        7        8 1
   8        8        4 1
   9        7        9 1
  10        9       10 1
  11       10       11 1
  12       11       12 1
  13       12        6 1
  14        5       13 1
  15        9       14 1
  16        9       15 1
  17       10       16 1
  18       10       17 1
  19       12       18 1
  20       12       19 1

@<TRIPOS>MOLECULE

  19   20
SMALL
USER_CHARGES
@<TRIPOS>ATOM
   1 O1           0.3750     1.4573     1.9812 O.co2        1    LIG   0.0000
   2 C2           1.0000     1.0000     1.0000 C.2          1    LIG   0.0000
   3 O3           0.3950     0.5573     0.0502 O.co2        1    LIG  -1.0000
   4 C4           2.4538     1.0000     1.0000 C.2          1    LIG   0.0000
   5 C5           3.2970    -0.0711     0.9086 C.2          1    LIG   0.0000
   6 C6           4.6641     0.3157     0.9448 C.2          1    LIG   0.0000
   7 C7           4.9235     1.6543     1.0502 C.2          1    LIG   0.0000
   8 S8           3.3977     2.4108     1.1237 S.3          1    LIG   0.0000
   9 C9           6.2338     2.4108     1.1587 C.3          1    LIG   0.0000
  10 C10          7.0378     1.7568     2.2730 C.3          1    LIG   0.0000
  11 S11          6.7944    -0.0384     2.3496 S.3          1    LIG   0.0000
  12 C12          5.8660    -0.5901     0.9018 C.3          1    LIG   0.0000
  13 H            2.9877    -1.0185     0.8257 H            1    LIG   0.0000
  14 H            6.0585     3.3702     1.3799 H            1    LIG   0.0000
  15 H            6.7351     2.3540     0.2953 H            1    LIG   0.0000
  16 H            8.0083     1.9419     2.1185 H            1    LIG   0.0000
  17 H            6.7574     2.1553     3.1462 H            1    LIG   0.0000
  18 H            5.6011    -1.5509     0.9833 H            1    LIG   0.0000
  19 H            6.3909    -0.4592     0.0608 H            1    LIG   0.0000
@<TRIPOS>BOND
   1        1        2 ar
   2        2        3 ar
   3        2        4 1
   4        4        5 2
   5        5        6 1
   6        6        7 2
   7        7        8 1
   8        8        4 1
   9        7        9 1
  10        9       10 1
  11       10       11 1
  12       11       12 1
  13       12        6 1
  14        5       13 1
  15        9       14 1
  16        9       15 1
  17       10       16 1
  18       10       17 1
  19       12       18 1
  20       12       19 1

@<TRIPOS>MOLECULE

  19   20
SMALL
USER_CHARGES
@<TRIPOS>ATOM
   1 O1           0.3750     1.4573     1.9812 O.co2        1    LIG   0.0000
   2 C2           1.0000     1.0000     1.0000 C.2          1    LIG   0.0000
   3 O3           0.3950     0.5573     0.0502 O.co2        1    LIG  -1.0000
   4 C4           2.4510     1.0000     1.0000 C.2          1    LIG   0.0000
   5 C5           3.2610     0.5399     0.0086 C.2          1    LIG   0.0000
   6 C6           4.6500     0.6779     0.2820 C.2          1    LIG   0.0000
   7 C7           4.9592     1.2226     1.4774 C.2          1    LIG   0.0000
   8 S8           3.4736     1.5780     2.2400 S.3          1    LIG   0.0000
   9 C9           6.4331     1.3758     1.7951 C.3          1    LIG   0.0000
  10 C10          6.9135     2.5238     0.9364 C.3          1    LIG   0.0000
  11 S11          6.8432     1.8064    -0.7166 S.3          1    LIG   0.0000
  12 C12          5.8166     0.3184    -0.6091 C.3          1    LIG   0.0000
  13 H            2.9106     0.1397    -0.8382 H            1    LIG   0.0000
  14 H            6.9288     0.5377     1.5674 H            1    LIG   0.0000
  15 H            6.5618     1.5864     2.7642 H            1    LIG   0.0000
  16 H            6.3077     3.3155     1.0154 H            1    LIG   0.0000
  17 H            7.8462     2.7926     1.1770 H            1    LIG   0.0000
  18 H            6.3387    -0.4354    -0.2101 H            1    LIG   0.0000
  19 H            5.4915     0.0547    -1.5172 H            1    LIG   0.0000
@<TRIPOS>BOND
   1        1        2 ar
   2        2        3 ar
   3        2        4 1
   4        4        5 2
   5        5        6 1
   6        6        7 2
   7        7        8 1
   8        8        4 1
   9        7        9 1
  10        9       10 1
  11       10       11 1
  12       11       12 1
  13       12        6 1
  14        5       13 1
  15        9       14 1
  16        9       15 1
  17       10       16 1
  18       10       17 1
  19       12       18 1
  20       12       19 1

@<TRIPOS>MOLECULE

  19   20
SMALL
USER_CHARGES
@<TRIPOS>ATOM
   1 O1           0.3750     1.4573     1.9812 O.co2        1    LIG   0.0000
   2 C2           1.0000     1.0000     1.0000 C.2          1    LIG   0.0000
   3 O3           0.3950     0.5573     0.0502 O.co2        1    LIG  -1.0000
   4 C4           2.4510     1.0000     1.0000 C.2          1    LIG   0.0000
   5 C5           3.2610     1.6286     0.1058 C.2          1    LIG   0.0000
   6 C6           4.6500     1.4608     0.3620 C.2          1    LIG   0.0000
   7 C7           4.9592     0.6979     1.4314 C.2          1    LIG   0.0000
   8 S8           3.4736     0.2151     2.1205 S.3          1    LIG   0.0000
   9 C9           6.4331     0.4993     1.7230 C.3          1    LIG   0.0000
  10 C10          6.9135     1.8170     2.2879 C.3          1    LIG   0.0000
  11 S11          6.8432     2.8898     0.8401 S.3          1    LIG   0.0000
  12 C12          5.8166     2.0527    -0.3948 C.3          1    LIG   0.0000
  13 H            2.9106     2.1618    -0.6641 H            1    LIG   0.0000
  14 H            6.9288     0.2774     0.8833 H            1    LIG   0.0000
  15 H            6.5618    -0.2346     2.3899 H            1    LIG   0.0000
  16 H            6.3077     2.1444     3.0130 H            1    LIG   0.0000
  17 H            7.8462     1.7430     2.6409 H            1    LIG   0.0000
  18 H            6.3387     1.3303    -0.8482 H            1    LIG   0.0000
  19 H            5.4915     2.7073    -1.0773 H            1    LIG   0.0000
@<TRIPOS>BOND
   1        1        2 ar
   2        2        3 ar
   3        2        4 1
   4        4        5 2
   5        5        6 1
   6        6        7 2
   7        7        8 1
   8        8        4 1
   9        7        9 1
  10        9       10 1
  11       10       11 1
  12       11       12 1
  13       12        6 1
  14        5       13 1
  15        9       14 1
  16        9       15 1
  17       10       16 1
  18       10       17 1
  19       12       18 1
  20       12       19 1

@<TRIPOS>MOLECULE

  19   20
SMALL
USER_CHARGES
@<TRIPOS>ATOM
   1 O1           0.3750     1.4573     1.9812 O.co2        1    LIG   0.0000
   2 C2           1.0000     1.0000     1.0000 C.2          1    LIG   0.0000
   3 O3           0.3950     0.5573     0.0502 O.co2        1    LIG  -1.0000
   4 C4           2.4510     1.0000     1.0000 C.2          1    LIG   0.0000
   5 C5           3.2610    -0.0887     0.9027 C.2          1    LIG   0.0000
   6 C6           4.6500     0.2171     0.9200 C.2          1    LIG   0.0000
   7 C7           4.9592     1.5247     1.0459 C.2          1    LIG   0.0000
   8 S8           3.4736     2.3628     1.1195 S.3          1    LIG   0.0000
   9 C9           6.4331     1.8765     1.0721 C.3          1    LIG   0.0000
  10 C10          6.9135     1.7069    -0.3515 C.3          1    LIG   0.0000
  11 S11          6.8432    -0.0834    -0.5566 S.3          1    LIG   0.0000
  12 C12          5.8166    -0.7343     0.7858 C.3          1    LIG   0.0000
  13 H            2.9106    -1.0221     0.8259 H            1    LIG   0.0000
  14 H            6.9288     1.2602     1.6841 H            1    LIG   0.0000
  15 H            6.5618     2.8210     1.3743 H            1    LIG   0.0000
  16 H            6.3077     2.1711    -0.9976 H            1    LIG   0.0000
  17 H            7.8462     2.0495    -0.4639 H            1    LIG   0.0000
  18 H            6.3387    -0.7657     1.6381 H            1    LIG   0.0000
  19 H            5.4915    -1.6526     0.5601 H            1    LIG   0.0000
@<TRIPOS>BOND
   1        1        2 ar
   2        2        3 ar
   3        2        4 1
   4        4        5 2
   5        5        6 1
   6        6        7 2
   7        7        8 1
   8        8        4 1
   9        7        9 1
  10        9       10 1
  11       10       11 1
  12       11       12 1
  13       12        6 1
  14        5       13 1
  15        9       14 1
  16        9       15 1
  17       10       16 1
  18       10       17 1
  19       12       18 1
  20       12       19 1

