@<TRIPOS>MOLECULE
*****
 19 20 0 0 0
SMALL
USER_CHARGES

@<TRIPOS>ATOM
      1 O1          0.3750    1.4573    1.9812 O.2     1  LIG1        0.0000
      2 C2          1.0000    1.0000    1.0000 C.3     1  LIG1        0.0000
      3 O3          0.3950    0.5573    0.0502 O.2     1  LIG1       -1.0000
      4 C4          2.4477    1.0000    1.0000 C.2     1  LIG1        0.0000
      5 C5          3.2668    1.6246    0.1040 C.2     1  LIG1        0.0000
      6 C6          4.6437    1.4088    0.3700 C.2     1  LIG1        0.0000
      7 C7          4.9130    0.6512    1.4818 C.2     1  LIG1        0.0000
      8 S8          3.4177    0.1961    2.1477 S.3     1  LIG1        0.0000
      9 C9          6.2041    0.2122    2.1514 C.3     1  LIG1        0.0000
     10 C10         7.3235    0.2596    1.1276 C.3     1  LIG1        0.0000
     11 S11         7.2754    1.9311    0.4395 S.3     1  LIG1        0.0000
     12 C12         5.7444    1.9667   -0.5163 C.3     1  LIG1        0.0000
     13 H           2.9315    2.1763   -0.6597 H       1  LIG1        0.0000
     14 H           6.1035   -0.7207    2.4971 H       1  LIG1        0.0000
     15 H           6.4158    0.8280    2.9103 H       1  LIG1        0.0000
     16 H           8.2057    0.0870    1.5658 H       1  LIG1        0.0000
     17 H           7.1697   -0.4189    0.4094 H       1  LIG1        0.0000
     18 H           5.8406    1.4039   -1.3373 H       1  LIG1        0.0000
     19 H           5.5276    2.9066   -0.7801 H       1  LIG1        0.0000
@<TRIPOS>UNITY_ATOM_ATTR
1 1
charge -1
@<TRIPOS>BOND
     1     1     2    1
     2     2     3    2
     3     2     4    1
     4     4     5    2
     5     5     6    1
     6     6     7    2
     7     7     8    1
     8     8     4    1
     9     7     9    1
    10     9    10    1
    11    10    11    1
    12    11    12    1
    13    12     6    1
    14     5    13    1
    15     9    14    1
    16     9    15    1
    17    10    16    1
    18    10    17    1
    19    12    18    1
    20    12    19    1
