@<TRIPOS>MOLECULE
*****
 19 20 0 0 0
SMALL
USER_CHARGES

@<TRIPOS>ATOM
      1 O1          0.3750    1.4573    1.9812 O.2     1  LIG1        0.0000
      2 C2          1.0000    1.0000    1.0000 C.3     1  LIG1        0.0000
      3 O3          0.3950    0.5573    0.0502 O.2     1  LIG1       -1.0000
      4 C4          2.4477    1.0000    1.0000 C.2     1  LIG1        0.0000
      5 C5          3.2668    0.5363    0.0111 C.2     1  LIG1        0.0000
      6 C6          4.6437    0.6588    0.3310 C.2     1  LIG1        0.0000
      7 C7          4.9130    1.2428    1.5430 C.2     1  LIG1        0.0000
      8 S8          3.4177    1.5920    2.2701 S.3     1  LIG1        0.0000
      9 C9          6.2041    1.6032    2.2579 C.3     1  LIG1        0.0000
     10 C10         7.3235    0.7404    1.7050 C.3     1  LIG1        0.0000
     11 S11         7.2754    0.9801   -0.0866 S.3     1  LIG1        0.0000
     12 C12         5.7444    0.1702   -0.5953 C.3     1  LIG1        0.0000
     13 H           2.9315    0.1508   -0.8486 H       1  LIG1        0.0000
     14 H           6.1035    1.4362    3.2387 H       1  LIG1        0.0000
     15 H           6.4158    2.5684    2.1042 H       1  LIG1        0.0000
     16 H           8.2057    1.0335    2.0735 H       1  LIG1        0.0000
     17 H           7.1697   -0.2209    1.9335 H       1  LIG1        0.0000
     18 H           5.8406   -0.8222   -0.5184 H       1  LIG1        0.0000
     19 H           5.5276    0.4117   -1.5412 H       1  LIG1        0.0000
@<TRIPOS>UNITY_ATOM_ATTR
1 1
charge -1
@<TRIPOS>BOND
     1     1     2    1
     2     2     3    2
     3     2     4    1
     4     4     5    2
     5     5     6    1
     6     6     7    2
     7     7     8    1
     8     8     4    1
     9     7     9    1
    10     9    10    1
    11    10    11    1
    12    11    12    1
    13    12     6    1
    14     5    13    1
    15     9    14    1
    16     9    15    1
    17    10    16    1
    18    10    17    1
    19    12    18    1
    20    12    19    1
