@<TRIPOS>MOLECULE
*****
 19 20 0 0 0
SMALL
USER_CHARGES

@<TRIPOS>ATOM
      1 O1          0.3750    1.4573    1.9812 O.2     1  LIG1        0.0000
      2 C2          1.0000    1.0000    1.0000 C.3     1  LIG1        0.0000
      3 O3          0.3950    0.5573    0.0502 O.2     1  LIG1       -1.0000
      4 C4          2.4538    1.0000    1.0000 C.2     1  LIG1        0.0000
      5 C5          3.2970    1.6147    0.1181 C.2     1  LIG1        0.0000
      6 C6          4.6641    1.3900    0.4350 C.2     1  LIG1        0.0000
      7 C7          4.9235    0.6294    1.5415 C.2     1  LIG1        0.0000
      8 S8          3.3977    0.1875    2.1600 S.3     1  LIG1        0.0000
      9 C9          6.2338    0.1571    2.1425 C.3     1  LIG1        0.0000
     10 C10         7.0378   -0.4809    1.0189 C.3     1  LIG1        0.0000
     11 S11         6.7944    0.3504   -0.5740 S.3     1  LIG1        0.0000
     12 C12         5.8660    1.8801   -0.3279 C.3     1  LIG1        0.0000
     13 H           2.9877    2.1602   -0.6610 H       1  LIG1        0.0000
     14 H           6.0585   -0.5141    2.8627 H       1  LIG1        0.0000
     15 H           6.7351    0.9333    2.5250 H       1  LIG1        0.0000
     16 H           8.0083   -0.4396    1.2565 H       1  LIG1        0.0000
     17 H           6.7574   -1.4364    0.9274 H       1  LIG1        0.0000
     18 H           5.6011    2.2900   -1.2008 H       1  LIG1        0.0000
     19 H           6.3909    2.5430    0.2059 H       1  LIG1        0.0000
@<TRIPOS>UNITY_ATOM_ATTR
1 1
charge -1
@<TRIPOS>BOND
     1     1     2    1
     2     2     3    2
     3     2     4    1
     4     4     5    2
     5     5     6    1
     6     6     7    2
     7     7     8    1
     8     8     4    1
     9     7     9    1
    10     9    10    1
    11    10    11    1
    12    11    12    1
    13    12     6    1
    14     5    13    1
    15     9    14    1
    16     9    15    1
    17    10    16    1
    18    10    17    1
    19    12    18    1
    20    12    19    1
