@<TRIPOS>MOLECULE
*****
 19 20 0 0 0
SMALL
USER_CHARGES

@<TRIPOS>ATOM
      1 O1          0.3750    1.4573    1.9812 O.2     1  LIG1        0.0000
      2 C2          1.0000    1.0000    1.0000 C.3     1  LIG1        0.0000
      3 O3          0.3950    0.5573    0.0502 O.2     1  LIG1       -1.0000
      4 C4          2.4519    1.0000    1.0000 C.2     1  LIG1        0.0000
      5 C5          3.2720   -0.0875    0.9003 C.2     1  LIG1        0.0000
      6 C6          4.6398    0.2937    0.9069 C.2     1  LIG1        0.0000
      7 C7          4.9143    1.6274    1.0386 C.2     1  LIG1        0.0000
      8 S8          3.4005    2.4069    1.1233 S.3     1  LIG1        0.0000
      9 C9          6.1806    2.4673    1.1249 C.3     1  LIG1        0.0000
     10 C10         7.3060    1.6504    0.5133 C.3     1  LIG1        0.0000
     11 S11         7.2684    0.0819    1.4115 S.3     1  LIG1        0.0000
     12 C12         5.7712   -0.7090    0.7757 C.3     1  LIG1        0.0000
     13 H           2.9502   -1.0318    0.8314 H       1  LIG1        0.0000
     14 H           6.3889    2.6754    2.0805 H       1  LIG1        0.0000
     15 H           6.0612    3.3200    0.6164 H       1  LIG1        0.0000
     16 H           7.1454    1.5026   -0.4625 H       1  LIG1        0.0000
     17 H           8.1853    2.1094    0.6407 H       1  LIG1        0.0000
     18 H           5.5648   -1.5294    1.3091 H       1  LIG1        0.0000
     19 H           5.8975   -0.9587   -0.1843 H       1  LIG1        0.0000
@<TRIPOS>UNITY_ATOM_ATTR
1 1
charge -1
@<TRIPOS>BOND
     1     1     2    1
     2     2     3    2
     3     2     4    1
     4     4     5    2
     5     5     6    1
     6     6     7    2
     7     7     8    1
     8     8     4    1
     9     7     9    1
    10     9    10    1
    11    10    11    1
    12    11    12    1
    13    12     6    1
    14     5    13    1
    15     9    14    1
    16     9    15    1
    17    10    16    1
    18    10    17    1
    19    12    18    1
    20    12    19    1
