@<TRIPOS>MOLECULE
*****
 19 20 0 0 0
SMALL
USER_CHARGES

@<TRIPOS>ATOM
      1 O1          0.3750    1.4573    1.9812 O.2     1  LIG1        0.0000
      2 C2          1.0000    1.0000    1.0000 C.3     1  LIG1        0.0000
      3 O3          0.3950    0.5573    0.0502 O.2     1  LIG1       -1.0000
      4 C4          2.4538    1.0000    1.0000 C.2     1  LIG1        0.0000
      5 C5          3.2970   -0.0711    0.9086 C.2     1  LIG1        0.0000
      6 C6          4.6641    0.3157    0.9448 C.2     1  LIG1        0.0000
      7 C7          4.9235    1.6543    1.0502 C.2     1  LIG1        0.0000
      8 S8          3.3977    2.4108    1.1237 S.3     1  LIG1        0.0000
      9 C9          6.2338    2.4108    1.1587 C.3     1  LIG1        0.0000
     10 C10         7.0378    1.7568    2.2730 C.3     1  LIG1        0.0000
     11 S11         6.7944   -0.0384    2.3496 S.3     1  LIG1        0.0000
     12 C12         5.8660   -0.5901    0.9018 C.3     1  LIG1        0.0000
     13 H           2.9877   -1.0185    0.8257 H       1  LIG1        0.0000
     14 H           6.0585    3.3702    1.3799 H       1  LIG1        0.0000
     15 H           6.7351    2.3540    0.2953 H       1  LIG1        0.0000
     16 H           8.0083    1.9419    2.1185 H       1  LIG1        0.0000
     17 H           6.7574    2.1553    3.1462 H       1  LIG1        0.0000
     18 H           5.6011   -1.5509    0.9833 H       1  LIG1        0.0000
     19 H           6.3909   -0.4592    0.0608 H       1  LIG1        0.0000
@<TRIPOS>UNITY_ATOM_ATTR
1 1
charge -1
@<TRIPOS>BOND
     1     1     2    1
     2     2     3    2
     3     2     4    1
     4     4     5    2
     5     5     6    1
     6     6     7    2
     7     7     8    1
     8     8     4    1
     9     7     9    1
    10     9    10    1
    11    10    11    1
    12    11    12    1
    13    12     6    1
    14     5    13    1
    15     9    14    1
    16     9    15    1
    17    10    16    1
    18    10    17    1
    19    12    18    1
    20    12    19    1
