@<TRIPOS>MOLECULE
*****
 19 20 0 0 0
SMALL
USER_CHARGES

@<TRIPOS>ATOM
      1 O1          0.3750    1.4573    1.9812 O.2     1  LIG1        0.0000
      2 C2          1.0000    1.0000    1.0000 C.3     1  LIG1        0.0000
      3 O3          0.3950    0.5573    0.0502 O.2     1  LIG1       -1.0000
      4 C4          2.4510    1.0000    1.0000 C.2     1  LIG1        0.0000
      5 C5          3.2610    1.6286    0.1058 C.2     1  LIG1        0.0000
      6 C6          4.6500    1.4608    0.3620 C.2     1  LIG1        0.0000
      7 C7          4.9592    0.6979    1.4314 C.2     1  LIG1        0.0000
      8 S8          3.4736    0.2151    2.1205 S.3     1  LIG1        0.0000
      9 C9          6.4331    0.4993    1.7230 C.3     1  LIG1        0.0000
     10 C10         6.9135    1.8170    2.2879 C.3     1  LIG1        0.0000
     11 S11         6.8432    2.8898    0.8401 S.3     1  LIG1        0.0000
     12 C12         5.8166    2.0527   -0.3948 C.3     1  LIG1        0.0000
     13 H           2.9106    2.1618   -0.6641 H       1  LIG1        0.0000
     14 H           6.9288    0.2774    0.8833 H       1  LIG1        0.0000
     15 H           6.5618   -0.2346    2.3899 H       1  LIG1        0.0000
     16 H           6.3077    2.1444    3.0130 H       1  LIG1        0.0000
     17 H           7.8462    1.7430    2.6409 H       1  LIG1        0.0000
     18 H           6.3387    1.3303   -0.8482 H       1  LIG1        0.0000
     19 H           5.4915    2.7073   -1.0773 H       1  LIG1        0.0000
@<TRIPOS>UNITY_ATOM_ATTR
1 1
charge -1
@<TRIPOS>BOND
     1     1     2    1
     2     2     3    2
     3     2     4    1
     4     4     5    2
     5     5     6    1
     6     6     7    2
     7     7     8    1
     8     8     4    1
     9     7     9    1
    10     9    10    1
    11    10    11    1
    12    11    12    1
    13    12     6    1
    14     5    13    1
    15     9    14    1
    16     9    15    1
    17    10    16    1
    18    10    17    1
    19    12    18    1
    20    12    19    1
