@<TRIPOS>MOLECULE
*****
 19 20 0 0 0
SMALL
USER_CHARGES

@<TRIPOS>ATOM
      1 O1          0.3750    1.4573    1.9812 O.2     1  LIG1        0.0000
      2 C2          1.0000    1.0000    1.0000 C.3     1  LIG1        0.0000
      3 O3          0.3950    0.5573    0.0502 O.2     1  LIG1       -1.0000
      4 C4          2.4519    1.0000    1.0000 C.2     1  LIG1        0.0000
      5 C5          3.2720    1.6301    0.1080 C.2     1  LIG1        0.0000
      6 C6          4.6398    1.4338    0.4349 C.2     1  LIG1        0.0000
      7 C7          4.9143    0.6529    1.5241 C.2     1  LIG1        0.0000
      8 S8          3.4005    0.1897    2.1568 S.3     1  LIG1        0.0000
      9 C9          6.1806    0.1582    2.2082 C.3     1  LIG1        0.0000
     10 C10         7.3060    1.0963    1.8066 C.3     1  LIG1        0.0000
     11 S11         7.2684    1.1026   -0.0008 S.3     1  LIG1        0.0000
     12 C12         5.7712    2.0487   -0.3680 C.3     1  LIG1        0.0000
     13 H           2.9502    2.1619   -0.6753 H       1  LIG1        0.0000
     14 H           6.3889   -0.7735    1.9107 H       1  LIG1        0.0000
     15 H           6.0612    0.1722    3.2010 H       1  LIG1        0.0000
     16 H           7.1454    2.0153    2.1665 H       1  LIG1        0.0000
     17 H           8.1853    0.7565    2.1404 H       1  LIG1        0.0000
     18 H           5.5648    1.9970   -1.3451 H       1  LIG1        0.0000
     19 H           5.8975    3.0050   -0.1041 H       1  LIG1        0.0000
@<TRIPOS>UNITY_ATOM_ATTR
1 1
charge -1
@<TRIPOS>BOND
     1     1     2    1
     2     2     3    2
     3     2     4    1
     4     4     5    2
     5     5     6    1
     6     6     7    2
     7     7     8    1
     8     8     4    1
     9     7     9    1
    10     9    10    1
    11    10    11    1
    12    11    12    1
    13    12     6    1
    14     5    13    1
    15     9    14    1
    16     9    15    1
    17    10    16    1
    18    10    17    1
    19    12    18    1
    20    12    19    1
