@<TRIPOS>MOLECULE
*****
 19 20 0 0 0
SMALL
USER_CHARGES

@<TRIPOS>ATOM
      1 O1          0.3750    1.4573    1.9812 O.2     1  LIG1        0.0000
      2 C2          1.0000    1.0000    1.0000 C.3     1  LIG1        0.0000
      3 O3          0.3950    0.5573    0.0502 O.2     1  LIG1       -1.0000
      4 C4          2.4510    1.0000    1.0000 C.2     1  LIG1        0.0000
      5 C5          3.2610    0.5399    0.0086 C.2     1  LIG1        0.0000
      6 C6          4.6500    0.6779    0.2820 C.2     1  LIG1        0.0000
      7 C7          4.9592    1.2226    1.4774 C.2     1  LIG1        0.0000
      8 S8          3.4736    1.5780    2.2400 S.3     1  LIG1        0.0000
      9 C9          6.4331    1.3758    1.7951 C.3     1  LIG1        0.0000
     10 C10         6.9135    2.5238    0.9364 C.3     1  LIG1        0.0000
     11 S11         6.8432    1.8064   -0.7166 S.3     1  LIG1        0.0000
     12 C12         5.8166    0.3184   -0.6091 C.3     1  LIG1        0.0000
     13 H           2.9106    0.1397   -0.8382 H       1  LIG1        0.0000
     14 H           6.9288    0.5377    1.5674 H       1  LIG1        0.0000
     15 H           6.5618    1.5864    2.7642 H       1  LIG1        0.0000
     16 H           6.3077    3.3155    1.0154 H       1  LIG1        0.0000
     17 H           7.8462    2.7926    1.1770 H       1  LIG1        0.0000
     18 H           6.3387   -0.4354   -0.2101 H       1  LIG1        0.0000
     19 H           5.4915    0.0547   -1.5172 H       1  LIG1        0.0000
@<TRIPOS>UNITY_ATOM_ATTR
1 1
charge -1
@<TRIPOS>BOND
     1     1     2    1
     2     2     3    2
     3     2     4    1
     4     4     5    2
     5     5     6    1
     6     6     7    2
     7     7     8    1
     8     8     4    1
     9     7     9    1
    10     9    10    1
    11    10    11    1
    12    11    12    1
    13    12     6    1
    14     5    13    1
    15     9    14    1
    16     9    15    1
    17    10    16    1
    18    10    17    1
    19    12    18    1
    20    12    19    1
