@<TRIPOS>MOLECULE

  31   33
SMALL
USER_CHARGES
@<TRIPOS>ATOM
   1 C1           3.5813     0.9165    -0.0261 C.3          1    LIG   0.0000
   2 N2           2.1142     0.8311    -0.0030 N.pl3        1    LIG   0.0000
   3 N3           1.2930     1.8547     0.0055 N.2          1    LIG   0.0000
   4 C4           0.0449     1.4518     0.0247 C.2          1    LIG   0.0000
   5 C5           0.0764     0.0397     0.0278 C.2          1    LIG   0.0000
   6 C6           1.3904    -0.3215     0.0117 C.2          1    LIG   0.0000
   7 S7           2.0160    -1.9452     0.0060 S.o2         1    LIG   0.0000
   8 O8           3.0194    -2.0766     1.0305 O.2          1    LIG   0.0000
   9 O9           0.9449    -2.8731     0.2614 O.2          1    LIG   0.0000
  10 N10          2.7035    -2.2792    -1.5026 N.pl3        1    LIG   0.0000
  11 C11          1.9916    -2.8660    -2.6390 C.3          1    LIG   0.0000
  12 C12          2.7257    -2.2468    -3.8097 C.3          1    LIG   0.0000
  13 C13          4.1205    -2.0450    -3.2449 C.ar         1    LIG   0.0000
  14 C14          5.3237    -1.8470    -3.9035 C.ar         1    LIG   0.0000
  15 F15          5.3768    -1.8341    -5.2333 F            1    LIG   0.0000
  16 C16          6.4767    -1.6507    -3.1513 C.ar         1    LIG   0.0000
  17 C17          6.4108    -1.6602    -1.7629 C.ar         1    LIG   0.0000
  18 F18          7.5218    -1.4723    -1.0586 F            1    LIG   0.0000
  19 C19          5.1918    -1.8636    -1.1250 C.ar         1    LIG   0.0000
  20 C20          4.0318    -2.0598    -1.8673 C.ar         1    LIG   0.0000
  21 H            3.9689    -0.0053    -0.0283 H            1    LIG   0.0000
  22 H            3.8739     1.4031    -0.8492 H            1    LIG   0.0000
  23 H            3.8992     1.4098     0.7836 H            1    LIG   0.0000
  24 H           -0.7700     2.0314     0.0351 H            1    LIG   0.0000
  25 H           -0.7121    -0.5753     0.0395 H            1    LIG   0.0000
  26 H            1.0253    -2.6087    -2.6367 H            1    LIG   0.0000
  27 H            2.0711    -3.8628    -2.6443 H            1    LIG   0.0000
  28 H            2.7391    -2.8639    -4.5965 H            1    LIG   0.0000
  29 H            2.3132    -1.3757    -4.0764 H            1    LIG   0.0000
  30 H            7.3532    -1.5025    -3.6093 H            1    LIG   0.0000
  31 H            5.1490    -1.8687    -0.1260 H            1    LIG   0.0000
@<TRIPOS>BOND
   1        1        2 1
   2        2        3 1
   3        3        4 2
   4        4        5 1
   5        5        6 2
   6        6        2 1
   7        6        7 1
   8        7        8 2
   9        7        9 2
  10        7       10 1
  11       10       11 1
  12       11       12 1
  13       12       13 1
  14       13       14 ar
  15       14       15 1
  16       14       16 ar
  17       16       17 ar
  18       17       18 1
  19       17       19 ar
  20       19       20 ar
  21       20       13 ar
  22       20       10 1
  23        1       21 1
  24        1       22 1
  25        1       23 1
  26        4       24 1
  27        5       25 1
  28       11       26 1
  29       11       27 1
  30       12       28 1
  31       12       29 1
  32       16       30 1
  33       19       31 1

@<TRIPOS>MOLECULE

  31   33
SMALL
USER_CHARGES
@<TRIPOS>ATOM
   1 C1           3.5813     0.9165    -0.0261 C.3          1    LIG   0.0000
   2 N2           2.1142     0.8311    -0.0030 N.pl3        1    LIG   0.0000
   3 N3           1.2930     1.8547     0.0055 N.2          1    LIG   0.0000
   4 C4           0.0449     1.4518     0.0247 C.2          1    LIG   0.0000
   5 C5           0.0764     0.0397     0.0278 C.2          1    LIG   0.0000
   6 C6           1.3904    -0.3215     0.0117 C.2          1    LIG   0.0000
   7 S7           2.0160    -1.9452     0.0060 S.o2         1    LIG   0.0000
   8 O8           3.0194    -2.0766     1.0305 O.2          1    LIG   0.0000
   9 O9           0.9449    -2.8731     0.2614 O.2          1    LIG   0.0000
  10 N10          2.7035    -2.2792    -1.5026 N.pl3        1    LIG   0.0000
  11 C11          4.0985    -2.0243    -1.8652 C.3          1    LIG   0.0000
  12 C12          4.3567    -3.1256    -2.8719 C.3          1    LIG   0.0000
  13 C13          2.9809    -3.3365    -3.4783 C.ar         1    LIG   0.0000
  14 C14          2.6212    -3.9443    -4.6707 C.ar         1    LIG   0.0000
  15 F15          3.5481    -4.4334    -5.4912 F            1    LIG   0.0000
  16 C16          1.2722    -4.0455    -4.9928 C.ar         1    LIG   0.0000
  17 C17          0.3109    -3.5369    -4.1272 C.ar         1    LIG   0.0000
  18 F18         -0.9739    -3.6404    -4.4502 F            1    LIG   0.0000
  19 C19          0.6970    -2.9289    -2.9375 C.ar         1    LIG   0.0000
  20 C20          2.0435    -2.8233    -2.6044 C.ar         1    LIG   0.0000
  21 H            3.9689    -0.0053    -0.0283 H            1    LIG   0.0000
  22 H            3.8739     1.4031    -0.8492 H            1    LIG   0.0000
  23 H            3.8992     1.4098     0.7836 H            1    LIG   0.0000
  24 H           -0.7700     2.0314     0.0351 H            1    LIG   0.0000
  25 H           -0.7121    -0.5753     0.0395 H            1    LIG   0.0000
  26 H            4.7025    -2.1056    -1.0724 H            1    LIG   0.0000
  27 H            4.2092    -1.1199    -2.2772 H            1    LIG   0.0000
  28 H            5.0174    -2.8359    -3.5644 H            1    LIG   0.0000
  29 H            4.6864    -3.9564    -2.4235 H            1    LIG   0.0000
  30 H            0.9937    -4.4842    -5.8472 H            1    LIG   0.0000
  31 H            0.0020    -2.5653    -2.3173 H            1    LIG   0.0000
@<TRIPOS>BOND
   1        1        2 1
   2        2        3 1
   3        3        4 2
   4        4        5 1
   5        5        6 2
   6        6        2 1
   7        6        7 1
   8        7        8 2
   9        7        9 2
  10        7       10 1
  11       10       11 1
  12       11       12 1
  13       12       13 1
  14       13       14 ar
  15       14       15 1
  16       14       16 ar
  17       16       17 ar
  18       17       18 1
  19       17       19 ar
  20       19       20 ar
  21       20       13 ar
  22       20       10 1
  23        1       21 1
  24        1       22 1
  25        1       23 1
  26        4       24 1
  27        5       25 1
  28       11       26 1
  29       11       27 1
  30       12       28 1
  31       12       29 1
  32       16       30 1
  33       19       31 1

@<TRIPOS>MOLECULE

  31   33
SMALL
USER_CHARGES
@<TRIPOS>ATOM
   1 C1           3.5813     0.9165    -0.0261 C.3          1    LIG   0.0000
   2 N2           2.1142     0.8311    -0.0030 N.pl3        1    LIG   0.0000
   3 N3           1.2930     1.8547     0.0055 N.2          1    LIG   0.0000
   4 C4           0.0449     1.4518     0.0247 C.2          1    LIG   0.0000
   5 C5           0.0764     0.0397     0.0278 C.2          1    LIG   0.0000
   6 C6           1.3904    -0.3215     0.0117 C.2          1    LIG   0.0000
   7 S7           2.0160    -1.9452     0.0060 S.o2         1    LIG   0.0000
   8 O8           1.9900    -2.4743     1.3451 O.2          1    LIG   0.0000
   9 O9           1.2043    -2.7693    -0.8516 O.2          1    LIG   0.0000
  10 N10          3.6089    -1.9340    -0.5652 N.pl3        1    LIG   0.0000
  11 C11          4.7660    -2.5443     0.0887 C.3          1    LIG   0.0000
  12 C12          5.8870    -1.6274    -0.3385 C.3          1    LIG   0.0000
  13 C13          5.4037    -1.1114    -1.6779 C.ar         1    LIG   0.0000
  14 C14          6.0507    -0.4977    -2.7419 C.ar         1    LIG   0.0000
  15 F15          7.3684    -0.3314    -2.6727 F            1    LIG   0.0000
  16 C16          5.3496    -0.0616    -3.8581 C.ar         1    LIG   0.0000
  17 C17          3.9738    -0.2447    -3.9125 C.ar         1    LIG   0.0000
  18 F18          3.3005     0.1987    -4.9730 F            1    LIG   0.0000
  19 C19          3.3304    -0.8727    -2.8525 C.ar         1    LIG   0.0000
  20 C20          4.0310    -1.3133    -1.7316 C.ar         1    LIG   0.0000
  21 H            3.9689    -0.0053    -0.0283 H            1    LIG   0.0000
  22 H            3.8739     1.4031    -0.8492 H            1    LIG   0.0000
  23 H            3.8992     1.4098     0.7836 H            1    LIG   0.0000
  24 H           -0.7700     2.0314     0.0351 H            1    LIG   0.0000
  25 H           -0.7121    -0.5753     0.0395 H            1    LIG   0.0000
  26 H            4.9164    -3.4781    -0.2361 H            1    LIG   0.0000
  27 H            4.6602    -2.5503     1.0831 H            1    LIG   0.0000
  28 H            6.0090    -0.8790     0.3134 H            1    LIG   0.0000
  29 H            6.7466    -2.1293    -0.4344 H            1    LIG   0.0000
  30 H            5.8304     0.3801    -4.6156 H            1    LIG   0.0000
  31 H            2.3411    -1.0116    -2.8954 H            1    LIG   0.0000
@<TRIPOS>BOND
   1        1        2 1
   2        2        3 1
   3        3        4 2
   4        4        5 1
   5        5        6 2
   6        6        2 1
   7        6        7 1
   8        7        8 2
   9        7        9 2
  10        7       10 1
  11       10       11 1
  12       11       12 1
  13       12       13 1
  14       13       14 ar
  15       14       15 1
  16       14       16 ar
  17       16       17 ar
  18       17       18 1
  19       17       19 ar
  20       19       20 ar
  21       20       13 ar
  22       20       10 1
  23        1       21 1
  24        1       22 1
  25        1       23 1
  26        4       24 1
  27        5       25 1
  28       11       26 1
  29       11       27 1
  30       12       28 1
  31       12       29 1
  32       16       30 1
  33       19       31 1

@<TRIPOS>MOLECULE

  31   33
SMALL
USER_CHARGES
@<TRIPOS>ATOM
   1 C1           3.5813     0.9165    -0.0261 C.3          1    LIG   0.0000
   2 N2           2.1142     0.8311    -0.0030 N.pl3        1    LIG   0.0000
   3 N3           1.2930     1.8547     0.0055 N.2          1    LIG   0.0000
   4 C4           0.0449     1.4518     0.0247 C.2          1    LIG   0.0000
   5 C5           0.0764     0.0397     0.0278 C.2          1    LIG   0.0000
   6 C6           1.3904    -0.3215     0.0117 C.2          1    LIG   0.0000
   7 S7           2.0160    -1.9452     0.0060 S.o2         1    LIG   0.0000
   8 O8           3.4553    -1.9050    -0.0171 O.2          1    LIG   0.0000
   9 O9           1.5740    -2.6340     1.1909 O.2          1    LIG   0.0000
  10 N10          1.4524    -2.7620    -1.3646 N.pl3        1    LIG   0.0000
  11 C11          0.0598    -2.8608    -1.8003 C.3          1    LIG   0.0000
  12 C12          0.0374    -4.2119    -2.4742 C.3          1    LIG   0.0000
  13 C13          1.4601    -4.3599    -2.9718 C.ar         1    LIG   0.0000
  14 C14          2.0467    -5.1860    -3.9210 C.ar         1    LIG   0.0000
  15 F15          1.2668    -6.0132    -4.6111 F            1    LIG   0.0000
  16 C16          3.4153    -5.1601    -4.1532 C.ar         1    LIG   0.0000
  17 C17          4.2135    -4.2889    -3.4229 C.ar         1    LIG   0.0000
  18 F18          5.5295    -4.2853    -3.6294 F            1    LIG   0.0000
  19 C19          3.6219    -3.4524    -2.4837 C.ar         1    LIG   0.0000
  20 C20          2.2486    -3.4744    -2.2493 C.ar         1    LIG   0.0000
  21 H            3.9689    -0.0053    -0.0283 H            1    LIG   0.0000
  22 H            3.8739     1.4031    -0.8492 H            1    LIG   0.0000
  23 H            3.8992     1.4098     0.7836 H            1    LIG   0.0000
  24 H           -0.7700     2.0314     0.0351 H            1    LIG   0.0000
  25 H           -0.7121    -0.5753     0.0395 H            1    LIG   0.0000
  26 H           -0.1728    -2.1304    -2.4425 H            1    LIG   0.0000
  27 H           -0.5674    -2.8324    -1.0220 H            1    LIG   0.0000
  28 H           -0.1943    -4.9353    -1.8239 H            1    LIG   0.0000
  29 H           -0.6133    -4.2253    -3.2335 H            1    LIG   0.0000
  30 H            3.8224    -5.7627    -4.8395 H            1    LIG   0.0000
  31 H            4.1957    -2.8196    -1.9637 H            1    LIG   0.0000
@<TRIPOS>BOND
   1        1        2 1
   2        2        3 1
   3        3        4 2
   4        4        5 1
   5        5        6 2
   6        6        2 1
   7        6        7 1
   8        7        8 2
   9        7        9 2
  10        7       10 1
  11       10       11 1
  12       11       12 1
  13       12       13 1
  14       13       14 ar
  15       14       15 1
  16       14       16 ar
  17       16       17 ar
  18       17       18 1
  19       17       19 ar
  20       19       20 ar
  21       20       13 ar
  22       20       10 1
  23        1       21 1
  24        1       22 1
  25        1       23 1
  26        4       24 1
  27        5       25 1
  28       11       26 1
  29       11       27 1
  30       12       28 1
  31       12       29 1
  32       16       30 1
  33       19       31 1

@<TRIPOS>MOLECULE

  31   33
SMALL
USER_CHARGES
@<TRIPOS>ATOM
   1 C1           3.5813     0.9165    -0.0261 C.3          1    LIG   0.0000
   2 N2           2.1142     0.8311    -0.0030 N.pl3        1    LIG   0.0000
   3 N3           1.2930     1.8547     0.0055 N.2          1    LIG   0.0000
   4 C4           0.0449     1.4518     0.0247 C.2          1    LIG   0.0000
   5 C5           0.0764     0.0397     0.0278 C.2          1    LIG   0.0000
   6 C6           1.3904    -0.3215     0.0117 C.2          1    LIG   0.0000
   7 S7           2.0160    -1.9452     0.0060 S.o2         1    LIG   0.0000
   8 O8           0.9373    -2.8744    -0.2100 O.2          1    LIG   0.0000
   9 O9           2.9861    -2.0822    -1.0493 O.2          1    LIG   0.0000
  10 N10          2.7515    -2.2712     1.4937 N.pl3        1    LIG   0.0000
  11 C11          4.1647    -2.0443     1.7999 C.3          1    LIG   0.0000
  12 C12          4.1090    -1.7386     3.2819 C.3          1    LIG   0.0000
  13 C13          2.8998    -2.5396     3.7306 C.ar         1    LIG   0.0000
  14 C14          2.5322    -2.9535     5.0012 C.ar         1    LIG   0.0000
  15 F15          3.2964    -2.6749     6.0547 F            1    LIG   0.0000
  16 C16          1.3435    -3.6572     5.1606 C.ar         1    LIG   0.0000
  17 C17          0.5489    -3.9388     4.0554 C.ar         1    LIG   0.0000
  18 F18         -0.5834    -4.6132     4.2245 F            1    LIG   0.0000
  19 C19          0.9406    -3.5150     2.7901 C.ar         1    LIG   0.0000
  20 C20          2.1271    -2.8092     2.6189 C.ar         1    LIG   0.0000
  21 H            3.9689    -0.0053    -0.0283 H            1    LIG   0.0000
  22 H            3.8739     1.4031    -0.8492 H            1    LIG   0.0000
  23 H            3.8992     1.4098     0.7836 H            1    LIG   0.0000
  24 H           -0.7700     2.0314     0.0351 H            1    LIG   0.0000
  25 H           -0.7121    -0.5753     0.0395 H            1    LIG   0.0000
  26 H            4.5311    -1.2717     1.2814 H            1    LIG   0.0000
  27 H            4.7136    -2.8596     1.6158 H            1    LIG   0.0000
  28 H            4.9396    -2.0452     3.7467 H            1    LIG   0.0000
  29 H            3.9771    -0.7609     3.4456 H            1    LIG   0.0000
  30 H            1.0603    -3.9606     6.0704 H            1    LIG   0.0000
  31 H            0.3654    -3.7190     1.9980 H            1    LIG   0.0000
@<TRIPOS>BOND
   1        1        2 1
   2        2        3 1
   3        3        4 2
   4        4        5 1
   5        5        6 2
   6        6        2 1
   7        6        7 1
   8        7        8 2
   9        7        9 2
  10        7       10 1
  11       10       11 1
  12       11       12 1
  13       12       13 1
  14       13       14 ar
  15       14       15 1
  16       14       16 ar
  17       16       17 ar
  18       17       18 1
  19       17       19 ar
  20       19       20 ar
  21       20       13 ar
  22       20       10 1
  23        1       21 1
  24        1       22 1
  25        1       23 1
  26        4       24 1
  27        5       25 1
  28       11       26 1
  29       11       27 1
  30       12       28 1
  31       12       29 1
  32       16       30 1
  33       19       31 1

@<TRIPOS>MOLECULE

  31   33
SMALL
USER_CHARGES
@<TRIPOS>ATOM
   1 C1           3.5813     0.9165    -0.0261 C.3          1    LIG   0.0000
   2 N2           2.1142     0.8311    -0.0030 N.pl3        1    LIG   0.0000
   3 N3           1.2930     1.8547     0.0055 N.2          1    LIG   0.0000
   4 C4           0.0449     1.4518     0.0247 C.2          1    LIG   0.0000
   5 C5           0.0764     0.0397     0.0278 C.2          1    LIG   0.0000
   6 C6           1.3904    -0.3215     0.0117 C.2          1    LIG   0.0000
   7 S7           2.0160    -1.9452     0.0060 S.o2         1    LIG   0.0000
   8 O8           0.9373    -2.8744    -0.2100 O.2          1    LIG   0.0000
   9 O9           2.9861    -2.0822    -1.0493 O.2          1    LIG   0.0000
  10 N10          2.7515    -2.2712     1.4937 N.pl3        1    LIG   0.0000
  11 C11          2.1479    -2.0175     2.8029 C.3          1    LIG   0.0000
  12 C12          2.7714    -3.1129     3.6420 C.3          1    LIG   0.0000
  13 C13          4.1129    -3.3163     2.9607 C.ar         1    LIG   0.0000
  14 C14          5.2679    -3.9154     3.4380 C.ar         1    LIG   0.0000
  15 F15          5.3201    -4.4015     4.6759 F            1    LIG   0.0000
  16 C16          6.3715    -4.0110     2.5974 C.ar         1    LIG   0.0000
  17 C17          6.3060    -3.5055     1.3042 C.ar         1    LIG   0.0000
  18 F18          7.3697    -3.6036     0.5138 F            1    LIG   0.0000
  19 C19          5.1365    -2.9063     0.8492 C.ar         1    LIG   0.0000
  20 C20          4.0258    -2.8063     1.6808 C.ar         1    LIG   0.0000
  21 H            3.9689    -0.0053    -0.0283 H            1    LIG   0.0000
  22 H            3.8739     1.4031    -0.8492 H            1    LIG   0.0000
  23 H            3.8992     1.4098     0.7836 H            1    LIG   0.0000
  24 H           -0.7700     2.0314     0.0351 H            1    LIG   0.0000
  25 H           -0.7121    -0.5753     0.0395 H            1    LIG   0.0000
  26 H            1.1523    -2.1055     2.7691 H            1    LIG   0.0000
  27 H            2.3909    -1.1107     3.1473 H            1    LIG   0.0000
  28 H            2.8877    -2.8205     4.5912 H            1    LIG   0.0000
  29 H            2.2211    -3.9475     3.6154 H            1    LIG   0.0000
  30 H            7.2123    -4.4434     2.9232 H            1    LIG   0.0000
  31 H            5.0935    -2.5449    -0.0823 H            1    LIG   0.0000
@<TRIPOS>BOND
   1        1        2 1
   2        2        3 1
   3        3        4 2
   4        4        5 1
   5        5        6 2
   6        6        2 1
   7        6        7 1
   8        7        8 2
   9        7        9 2
  10        7       10 1
  11       10       11 1
  12       11       12 1
  13       12       13 1
  14       13       14 ar
  15       14       15 1
  16       14       16 ar
  17       16       17 ar
  18       17       18 1
  19       17       19 ar
  20       19       20 ar
  21       20       13 ar
  22       20       10 1
  23        1       21 1
  24        1       22 1
  25        1       23 1
  26        4       24 1
  27        5       25 1
  28       11       26 1
  29       11       27 1
  30       12       28 1
  31       12       29 1
  32       16       30 1
  33       19       31 1

@<TRIPOS>MOLECULE

  31   33
SMALL
USER_CHARGES
@<TRIPOS>ATOM
   1 C1           3.5813     0.9165    -0.0261 C.3          1    LIG   0.0000
   2 N2           2.1142     0.8311    -0.0030 N.pl3        1    LIG   0.0000
   3 N3           1.2930     1.8547     0.0055 N.2          1    LIG   0.0000
   4 C4           0.0449     1.4518     0.0247 C.2          1    LIG   0.0000
   5 C5           0.0764     0.0397     0.0278 C.2          1    LIG   0.0000
   6 C6           1.3904    -0.3215     0.0117 C.2          1    LIG   0.0000
   7 S7           2.0160    -1.9452     0.0060 S.o2         1    LIG   0.0000
   8 O8           1.0807    -2.8176    -0.6556 O.2          1    LIG   0.0000
   9 O9           3.2747    -1.9722    -0.6929 O.2          1    LIG   0.0000
  10 N10          2.2443    -2.4673     1.5995 N.pl3        1    LIG   0.0000
  11 C11          3.4475    -3.1013     2.1373 C.3          1    LIG   0.0000
  12 C12          2.8756    -4.0048     3.2034 C.3          1    LIG   0.0000
  13 C13          1.6200    -3.2703     3.6247 C.ar         1    LIG   0.0000
  14 C14          0.8040    -3.3615     4.7443 C.ar         1    LIG   0.0000
  15 F15          1.1462    -4.2077     5.7116 F            1    LIG   0.0000
  16 C16         -0.3465    -2.5935     4.8631 C.ar         1    LIG   0.0000
  17 C17         -0.6870    -1.7148     3.8427 C.ar         1    LIG   0.0000
  18 F18         -1.8056    -0.9988     3.9478 F            1    LIG   0.0000
  19 C19          0.1393    -1.6145     2.7296 C.ar         1    LIG   0.0000
  20 C20          1.2956    -2.3822     2.6078 C.ar         1    LIG   0.0000
  21 H            3.9689    -0.0053    -0.0283 H            1    LIG   0.0000
  22 H            3.8739     1.4031    -0.8492 H            1    LIG   0.0000
  23 H            3.8992     1.4098     0.7836 H            1    LIG   0.0000
  24 H           -0.7700     2.0314     0.0351 H            1    LIG   0.0000
  25 H           -0.7121    -0.5753     0.0395 H            1    LIG   0.0000
  26 H            4.0703    -2.4247     2.5300 H            1    LIG   0.0000
  27 H            3.9266    -3.6268     1.4342 H            1    LIG   0.0000
  28 H            2.6579    -4.9075     2.8323 H            1    LIG   0.0000
  29 H            3.5098    -4.1039     3.9703 H            1    LIG   0.0000
  30 H           -0.9243    -2.6721     5.6754 H            1    LIG   0.0000
  31 H           -0.1019    -0.9760     1.9988 H            1    LIG   0.0000
@<TRIPOS>BOND
   1        1        2 1
   2        2        3 1
   3        3        4 2
   4        4        5 1
   5        5        6 2
   6        6        2 1
   7        6        7 1
   8        7        8 2
   9        7        9 2
  10        7       10 1
  11       10       11 1
  12       11       12 1
  13       12       13 1
  14       13       14 ar
  15       14       15 1
  16       14       16 ar
  17       16       17 ar
  18       17       18 1
  19       17       19 ar
  20       19       20 ar
  21       20       13 ar
  22       20       10 1
  23        1       21 1
  24        1       22 1
  25        1       23 1
  26        4       24 1
  27        5       25 1
  28       11       26 1
  29       11       27 1
  30       12       28 1
  31       12       29 1
  32       16       30 1
  33       19       31 1

@<TRIPOS>MOLECULE

  31   33
SMALL
USER_CHARGES
@<TRIPOS>ATOM
   1 C1           3.5813     0.9165    -0.0261 C.3          1    LIG   0.0000
   2 N2           2.1142     0.8311    -0.0030 N.pl3        1    LIG   0.0000
   3 N3           1.2930     1.8547     0.0055 N.2          1    LIG   0.0000
   4 C4           0.0449     1.4518     0.0247 C.2          1    LIG   0.0000
   5 C5           0.0764     0.0397     0.0278 C.2          1    LIG   0.0000
   6 C6           1.3904    -0.3215     0.0117 C.2          1    LIG   0.0000
   7 S7           2.0160    -1.9452     0.0060 S.o2         1    LIG   0.0000
   8 O8           1.5364    -2.6403    -1.1603 O.2          1    LIG   0.0000
   9 O9           3.4553    -1.9050    -0.0171 O.2          1    LIG   0.0000
  10 N10          1.4969    -2.7542     1.3976 N.pl3        1    LIG   0.0000
  11 C11          1.6254    -2.2437     2.7634 C.3          1    LIG   0.0000
  12 C12          0.4194    -2.8662     3.4349 C.3          1    LIG   0.0000
  13 C13          0.2417    -4.1530     2.6489 C.ar         1    LIG   0.0000
  14 C14         -0.4516    -5.3062     2.9808 C.ar         1    LIG   0.0000
  15 F15         -1.0751    -5.4113     4.1520 F            1    LIG   0.0000
  16 C16         -0.4951    -6.3510     2.0642 C.ar         1    LIG   0.0000
  17 C17          0.1544    -6.2302     0.8412 C.ar         1    LIG   0.0000
  18 F18          0.1042    -7.2381    -0.0232 F            1    LIG   0.0000
  19 C19          0.8458    -5.0638     0.5323 C.ar         1    LIG   0.0000
  20 C20          0.8950    -4.0116     1.4410 C.ar         1    LIG   0.0000
  21 H            3.9689    -0.0053    -0.0283 H            1    LIG   0.0000
  22 H            3.8739     1.4031    -0.8492 H            1    LIG   0.0000
  23 H            3.8992     1.4098     0.7836 H            1    LIG   0.0000
  24 H           -0.7700     2.0314     0.0351 H            1    LIG   0.0000
  25 H           -0.7121    -0.5753     0.0395 H            1    LIG   0.0000
  26 H            1.5805    -1.2450     2.7856 H            1    LIG   0.0000
  27 H            2.4777    -2.5486     3.1884 H            1    LIG   0.0000
  28 H            0.5988    -3.0534     4.4007 H            1    LIG   0.0000
  29 H           -0.3849    -2.2777     3.3533 H            1    LIG   0.0000
  30 H           -0.9936    -7.1893     2.2849 H            1    LIG   0.0000
  31 H            1.3108    -4.9808    -0.3492 H            1    LIG   0.0000
@<TRIPOS>BOND
   1        1        2 1
   2        2        3 1
   3        3        4 2
   4        4        5 1
   5        5        6 2
   6        6        2 1
   7        6        7 1
   8        7        8 2
   9        7        9 2
  10        7       10 1
  11       10       11 1
  12       11       12 1
  13       12       13 1
  14       13       14 ar
  15       14       15 1
  16       14       16 ar
  17       16       17 ar
  18       17       18 1
  19       17       19 ar
  20       19       20 ar
  21       20       13 ar
  22       20       10 1
  23        1       21 1
  24        1       22 1
  25        1       23 1
  26        4       24 1
  27        5       25 1
  28       11       26 1
  29       11       27 1
  30       12       28 1
  31       12       29 1
  32       16       30 1
  33       19       31 1

@<TRIPOS>MOLECULE

  31   33
SMALL
USER_CHARGES
@<TRIPOS>ATOM
   1 C1           3.5813     0.9165    -0.0261 C.3          1    LIG   0.0000
   2 N2           2.1142     0.8311    -0.0030 N.pl3        1    LIG   0.0000
   3 N3           1.2930     1.8547     0.0055 N.2          1    LIG   0.0000
   4 C4           0.0449     1.4518     0.0247 C.2          1    LIG   0.0000
   5 C5           0.0764     0.0397     0.0278 C.2          1    LIG   0.0000
   6 C6           1.3904    -0.3215     0.0117 C.2          1    LIG   0.0000
   7 S7           2.0160    -1.9452     0.0060 S.o2         1    LIG   0.0000
   8 O8           1.5364    -2.6403    -1.1603 O.2          1    LIG   0.0000
   9 O9           3.4553    -1.9050    -0.0171 O.2          1    LIG   0.0000
  10 N10          1.4969    -2.7542     1.3976 N.pl3        1    LIG   0.0000
  11 C11          0.8527    -4.0684     1.4144 C.3          1    LIG   0.0000
  12 C12          1.3094    -4.6134     2.7512 C.3          1    LIG   0.0000
  13 C13          1.4729    -3.3489     3.5756 C.ar         1    LIG   0.0000
  14 C14          1.5293    -3.1883     4.9510 C.ar         1    LIG   0.0000
  15 F15          1.4129    -4.2362     5.7632 F            1    LIG   0.0000
  16 C16          1.7208    -1.9129     5.4709 C.ar         1    LIG   0.0000
  17 C17          1.8468    -0.8250     4.6148 C.ar         1    LIG   0.0000
  18 F18          2.0282     0.3874     5.1275 F            1    LIG   0.0000
  19 C19          1.7842    -1.0115     3.2381 C.ar         1    LIG   0.0000
  20 C20          1.5942    -2.2830     2.7068 C.ar         1    LIG   0.0000
  21 H            3.9689    -0.0053    -0.0283 H            1    LIG   0.0000
  22 H            3.8739     1.4031    -0.8492 H            1    LIG   0.0000
  23 H            3.8992     1.4098     0.7836 H            1    LIG   0.0000
  24 H           -0.7700     2.0314     0.0351 H            1    LIG   0.0000
  25 H           -0.7121    -0.5753     0.0395 H            1    LIG   0.0000
  26 H            1.1711    -4.6408     0.6588 H            1    LIG   0.0000
  27 H           -0.1432    -3.9872     1.3743 H            1    LIG   0.0000
  28 H            0.6211    -5.2194     3.1498 H            1    LIG   0.0000
  29 H            2.1763    -5.1046     2.6653 H            1    LIG   0.0000
  30 H            1.7678    -1.7783     6.4607 H            1    LIG   0.0000
  31 H            1.8764    -0.2261     2.6260 H            1    LIG   0.0000
@<TRIPOS>BOND
   1        1        2 1
   2        2        3 1
   3        3        4 2
   4        4        5 1
   5        5        6 2
   6        6        2 1
   7        6        7 1
   8        7        8 2
   9        7        9 2
  10        7       10 1
  11       10       11 1
  12       11       12 1
  13       12       13 1
  14       13       14 ar
  15       14       15 1
  16       14       16 ar
  17       16       17 ar
  18       17       18 1
  19       17       19 ar
  20       19       20 ar
  21       20       13 ar
  22       20       10 1
  23        1       21 1
  24        1       22 1
  25        1       23 1
  26        4       24 1
  27        5       25 1
  28       11       26 1
  29       11       27 1
  30       12       28 1
  31       12       29 1
  32       16       30 1
  33       19       31 1

@<TRIPOS>MOLECULE

  31   33
SMALL
USER_CHARGES
@<TRIPOS>ATOM
   1 C1           3.5813     0.9165    -0.0261 C.3          1    LIG   0.0000
   2 N2           2.1142     0.8311    -0.0030 N.pl3        1    LIG   0.0000
   3 N3           1.2930     1.8547     0.0055 N.2          1    LIG   0.0000
   4 C4           0.0449     1.4518     0.0247 C.2          1    LIG   0.0000
   5 C5           0.0764     0.0397     0.0278 C.2          1    LIG   0.0000
   6 C6           1.3904    -0.3215     0.0117 C.2          1    LIG   0.0000
   7 S7           2.0160    -1.9452     0.0060 S.o2         1    LIG   0.0000
   8 O8           1.2322    -2.7646     0.8936 O.2          1    LIG   0.0000
   9 O9           1.9472    -2.4814    -1.3286 O.2          1    LIG   0.0000
  10 N10          3.6263    -1.9311     0.5260 N.pl3        1    LIG   0.0000
  11 C11          4.1445    -1.2575     1.7162 C.3          1    LIG   0.0000
  12 C12          5.5467    -0.8975     1.2871 C.3          1    LIG   0.0000
  13 C13          5.8795    -1.9861     0.2880 C.ar         1    LIG   0.0000
  14 C14          7.0770    -2.4445    -0.2442 C.ar         1    LIG   0.0000
  15 F15          8.2122    -1.9042     0.1896 F            1    LIG   0.0000
  16 C16          7.1027    -3.4427    -1.2089 C.ar         1    LIG   0.0000
  17 C17          5.9067    -3.9953    -1.6489 C.ar         1    LIG   0.0000
  18 F18          5.9333    -4.9341    -2.5938 F            1    LIG   0.0000
  19 C19          4.7101    -3.5450    -1.1039 C.ar         1    LIG   0.0000
  20 C20          4.6805    -2.5448    -0.1343 C.ar         1    LIG   0.0000
  21 H            3.9689    -0.0053    -0.0283 H            1    LIG   0.0000
  22 H            3.8739     1.4031    -0.8492 H            1    LIG   0.0000
  23 H            3.8992     1.4098     0.7836 H            1    LIG   0.0000
  24 H           -0.7700     2.0314     0.0351 H            1    LIG   0.0000
  25 H           -0.7121    -0.5753     0.0395 H            1    LIG   0.0000
  26 H            4.1523    -1.8704     2.5063 H            1    LIG   0.0000
  27 H            3.6099    -0.4407     1.9332 H            1    LIG   0.0000
  28 H            5.5718     0.0054     0.8581 H            1    LIG   0.0000
  29 H            6.1771    -0.9155     2.0631 H            1    LIG   0.0000
  30 H            7.9737    -3.7607    -1.5832 H            1    LIG   0.0000
  31 H            3.8497    -3.9486    -1.4151 H            1    LIG   0.0000
@<TRIPOS>BOND
   1        1        2 1
   2        2        3 1
   3        3        4 2
   4        4        5 1
   5        5        6 2
   6        6        2 1
   7        6        7 1
   8        7        8 2
   9        7        9 2
  10        7       10 1
  11       10       11 1
  12       11       12 1
  13       12       13 1
  14       13       14 ar
  15       14       15 1
  16       14       16 ar
  17       16       17 ar
  18       17       18 1
  19       17       19 ar
  20       19       20 ar
  21       20       13 ar
  22       20       10 1
  23        1       21 1
  24        1       22 1
  25        1       23 1
  26        4       24 1
  27        5       25 1
  28       11       26 1
  29       11       27 1
  30       12       28 1
  31       12       29 1
  32       16       30 1
  33       19       31 1

@<TRIPOS>MOLECULE

  31   33
SMALL
USER_CHARGES
@<TRIPOS>ATOM
   1 C1           3.5813     0.9165    -0.0261 C.3          1    LIG   0.0000
   2 N2           2.1142     0.8311    -0.0030 N.pl3        1    LIG   0.0000
   3 N3           1.2930     1.8547     0.0055 N.2          1    LIG   0.0000
   4 C4           0.0449     1.4518     0.0247 C.2          1    LIG   0.0000
   5 C5           0.0764     0.0397     0.0278 C.2          1    LIG   0.0000
   6 C6           1.3904    -0.3215     0.0117 C.2          1    LIG   0.0000
   7 S7           2.0160    -1.9452     0.0060 S.o2         1    LIG   0.0000
   8 O8           2.8031    -2.1522    -1.1819 O.2          1    LIG   0.0000
   9 O9           2.8407    -2.1459     1.1693 O.2          1    LIG   0.0000
  10 N10          0.7310    -3.0445     0.0295 N.pl3        1    LIG   0.0000
  11 C11          0.1222    -3.5997     1.2394 C.3          1    LIG   0.0000
  12 C12         -1.3069    -3.8164     0.7883 C.3          1    LIG   0.0000
  13 C13         -1.1390    -4.0801    -0.6974 C.ar         1    LIG   0.0000
  14 C14         -2.0081    -4.6797    -1.5952 C.ar         1    LIG   0.0000
  15 F15         -3.1869    -5.1474    -1.1913 F            1    LIG   0.0000
  16 C16         -1.6331    -4.7758    -2.9308 C.ar         1    LIG   0.0000
  17 C17         -0.4023    -4.2795    -3.3446 C.ar         1    LIG   0.0000
  18 F18         -0.0584    -4.3801    -4.6242 F            1    LIG   0.0000
  19 C19          0.4536    -3.6845    -2.4241 C.ar         1    LIG   0.0000
  20 C20          0.0884    -3.5817    -1.0858 C.ar         1    LIG   0.0000
  21 H            3.9689    -0.0053    -0.0283 H            1    LIG   0.0000
  22 H            3.8739     1.4031    -0.8492 H            1    LIG   0.0000
  23 H            3.8992     1.4098     0.7836 H            1    LIG   0.0000
  24 H           -0.7700     2.0314     0.0351 H            1    LIG   0.0000
  25 H           -0.7121    -0.5753     0.0395 H            1    LIG   0.0000
  26 H            0.1705    -2.9541     2.0016 H            1    LIG   0.0000
  27 H            0.5560    -4.4610     1.5040 H            1    LIG   0.0000
  28 H           -1.7180    -4.6014     1.2516 H            1    LIG   0.0000
  29 H           -1.8655    -3.0031     0.9511 H            1    LIG   0.0000
  30 H           -2.2488    -5.2018    -3.5936 H            1    LIG   0.0000
  31 H            1.3376    -3.3280    -2.7264 H            1    LIG   0.0000
@<TRIPOS>BOND
   1        1        2 1
   2        2        3 1
   3        3        4 2
   4        4        5 1
   5        5        6 2
   6        6        2 1
   7        6        7 1
   8        7        8 2
   9        7        9 2
  10        7       10 1
  11       10       11 1
  12       11       12 1
  13       12       13 1
  14       13       14 ar
  15       14       15 1
  16       14       16 ar
  17       16       17 ar
  18       17       18 1
  19       17       19 ar
  20       19       20 ar
  21       20       13 ar
  22       20       10 1
  23        1       21 1
  24        1       22 1
  25        1       23 1
  26        4       24 1
  27        5       25 1
  28       11       26 1
  29       11       27 1
  30       12       28 1
  31       12       29 1
  32       16       30 1
  33       19       31 1

@<TRIPOS>MOLECULE

  31   33
SMALL
USER_CHARGES
@<TRIPOS>ATOM
   1 C1           3.5813     0.9165    -0.0261 C.3          1    LIG   0.0000
   2 N2           2.1142     0.8311    -0.0030 N.pl3        1    LIG   0.0000
   3 N3           1.2930     1.8547     0.0055 N.2          1    LIG   0.0000
   4 C4           0.0449     1.4518     0.0247 C.2          1    LIG   0.0000
   5 C5           0.0764     0.0397     0.0278 C.2          1    LIG   0.0000
   6 C6           1.3904    -0.3215     0.0117 C.2          1    LIG   0.0000
   7 S7           2.0160    -1.9452     0.0060 S.o2         1    LIG   0.0000
   8 O8           2.8031    -2.1522    -1.1819 O.2          1    LIG   0.0000
   9 O9           2.8407    -2.1459     1.1693 O.2          1    LIG   0.0000
  10 N10          0.7310    -3.0445     0.0295 N.pl3        1    LIG   0.0000
  11 C11          0.0629    -3.5815    -1.1569 C.3          1    LIG   0.0000
  12 C12         -0.3626    -4.9514    -0.6719 C.3          1    LIG   0.0000
  13 C13         -0.5658    -4.7178     0.8145 C.ar         1    LIG   0.0000
  14 C14         -1.2734    -5.4671     1.7411 C.ar         1    LIG   0.0000
  15 F15         -1.9262    -6.5663     1.3707 F            1    LIG   0.0000
  16 C16         -1.2821    -5.0577     3.0700 C.ar         1    LIG   0.0000
  17 C17         -0.5929    -3.9115     3.4486 C.ar         1    LIG   0.0000
  18 F18         -0.6121    -3.5330     4.7223 F            1    LIG   0.0000
  19 C19          0.1078    -3.1749     2.4997 C.ar         1    LIG   0.0000
  20 C20          0.1245    -3.5757     1.1677 C.ar         1    LIG   0.0000
  21 H            3.9689    -0.0053    -0.0283 H            1    LIG   0.0000
  22 H            3.8739     1.4031    -0.8492 H            1    LIG   0.0000
  23 H            3.8992     1.4098     0.7836 H            1    LIG   0.0000
  24 H           -0.7700     2.0314     0.0351 H            1    LIG   0.0000
  25 H           -0.7121    -0.5753     0.0395 H            1    LIG   0.0000
  26 H            0.6919    -3.6477    -1.9315 H            1    LIG   0.0000
  27 H           -0.7263    -3.0243    -1.4151 H            1    LIG   0.0000
  28 H           -1.2114    -5.2442    -1.1121 H            1    LIG   0.0000
  29 H            0.3508    -5.6322    -0.8376 H            1    LIG   0.0000
  30 H           -1.7842    -5.5878     3.7532 H            1    LIG   0.0000
  31 H            0.6030    -2.3515     2.7768 H            1    LIG   0.0000
@<TRIPOS>BOND
   1        1        2 1
   2        2        3 1
   3        3        4 2
   4        4        5 1
   5        5        6 2
   6        6        2 1
   7        6        7 1
   8        7        8 2
   9        7        9 2
  10        7       10 1
  11       10       11 1
  12       11       12 1
  13       12       13 1
  14       13       14 ar
  15       14       15 1
  16       14       16 ar
  17       16       17 ar
  18       17       18 1
  19       17       19 ar
  20       19       20 ar
  21       20       13 ar
  22       20       10 1
  23        1       21 1
  24        1       22 1
  25        1       23 1
  26        4       24 1
  27        5       25 1
  28       11       26 1
  29       11       27 1
  30       12       28 1
  31       12       29 1
  32       16       30 1
  33       19       31 1

@<TRIPOS>MOLECULE

  31   33
SMALL
USER_CHARGES
@<TRIPOS>ATOM
   1 C1           3.5813     0.9165    -0.0261 C.3          1    LIG   0.0000
   2 N2           2.1142     0.8311    -0.0030 N.pl3        1    LIG   0.0000
   3 N3           1.2930     1.8547     0.0055 N.2          1    LIG   0.0000
   4 C4           0.0449     1.4518     0.0247 C.2          1    LIG   0.0000
   5 C5           0.0764     0.0397     0.0278 C.2          1    LIG   0.0000
   6 C6           1.3904    -0.3215     0.0117 C.2          1    LIG   0.0000
   7 S7           2.0160    -1.9452     0.0060 S.o2         1    LIG   0.0000
   8 O8           2.8031    -2.1522    -1.1819 O.2          1    LIG   0.0000
   9 O9           2.8407    -2.1459     1.1693 O.2          1    LIG   0.0000
  10 N10          0.7302    -3.0451     0.0296 N.pl3        1    LIG   0.0000
  11 C11          0.5939    -4.1965     0.9210 C.3          1    LIG   0.0000
  12 C12         -0.1760    -5.1696     0.0605 C.3          1    LIG   0.0000
  13 C13         -0.9759    -4.2548    -0.8434 C.ar         1    LIG   0.0000
  14 C14         -2.0971    -4.4569    -1.6369 C.ar         1    LIG   0.0000
  15 F15         -2.6755    -5.6545    -1.6247 F            1    LIG   0.0000
  16 C16         -2.6120    -3.4408    -2.4307 C.ar         1    LIG   0.0000
  17 C17         -1.9945    -2.1967    -2.4296 C.ar         1    LIG   0.0000
  18 F18         -2.4751    -1.2318    -3.2124 F            1    LIG   0.0000
  19 C19         -0.8811    -1.9924    -1.6231 C.ar         1    LIG   0.0000
  20 C20         -0.3627    -3.0092    -0.8238 C.ar         1    LIG   0.0000
  21 H            3.9689    -0.0053    -0.0283 H            1    LIG   0.0000
  22 H            3.8739     1.4031    -0.8492 H            1    LIG   0.0000
  23 H            3.8992     1.4098     0.7836 H            1    LIG   0.0000
  24 H           -0.7700     2.0314     0.0351 H            1    LIG   0.0000
  25 H           -0.7121    -0.5753     0.0395 H            1    LIG   0.0000
  26 H            0.0826    -3.9582     1.7468 H            1    LIG   0.0000
  27 H            1.4872    -4.5657     1.1770 H            1    LIG   0.0000
  28 H            0.4425    -5.7495    -0.4697 H            1    LIG   0.0000
  29 H           -0.7776    -5.7439     0.6157 H            1    LIG   0.0000
  30 H           -3.4195    -3.6032    -2.9977 H            1    LIG   0.0000
  31 H           -0.4415    -1.0942    -1.6164 H            1    LIG   0.0000
@<TRIPOS>BOND
   1        1        2 1
   2        2        3 1
   3        3        4 2
   4        4        5 1
   5        5        6 2
   6        6        2 1
   7        6        7 1
   8        7        8 2
   9        7        9 2
  10        7       10 1
  11       10       11 1
  12       11       12 1
  13       12       13 1
  14       13       14 ar
  15       14       15 1
  16       14       16 ar
  17       16       17 ar
  18       17       18 1
  19       17       19 ar
  20       19       20 ar
  21       20       13 ar
  22       20       10 1
  23        1       21 1
  24        1       22 1
  25        1       23 1
  26        4       24 1
  27        5       25 1
  28       11       26 1
  29       11       27 1
  30       12       28 1
  31       12       29 1
  32       16       30 1
  33       19       31 1

@<TRIPOS>MOLECULE

  31   33
SMALL
USER_CHARGES
@<TRIPOS>ATOM
   1 C1           3.5813     0.9165    -0.0261 C.3          1    LIG   0.0000
   2 N2           2.1142     0.8311    -0.0030 N.pl3        1    LIG   0.0000
   3 N3           1.2930     1.8547     0.0055 N.2          1    LIG   0.0000
   4 C4           0.0449     1.4518     0.0247 C.2          1    LIG   0.0000
   5 C5           0.0764     0.0397     0.0278 C.2          1    LIG   0.0000
   6 C6           1.3904    -0.3215     0.0117 C.2          1    LIG   0.0000
   7 S7           2.0160    -1.9452     0.0060 S.o2         1    LIG   0.0000
   8 O8           2.8031    -2.1522    -1.1819 O.2          1    LIG   0.0000
   9 O9           2.8407    -2.1459     1.1693 O.2          1    LIG   0.0000
  10 N10          0.7302    -3.0451     0.0296 N.pl3        1    LIG   0.0000
  11 C11         -0.4470    -3.0174    -0.8379 C.3          1    LIG   0.0000
  12 C12         -1.5090    -3.6115     0.0561 C.3          1    LIG   0.0000
  13 C13         -0.7100    -4.5271     0.9600 C.ar         1    LIG   0.0000
  14 C14         -1.0663    -5.5888     1.7806 C.ar         1    LIG   0.0000
  15 F15         -2.3389    -5.9747     1.8023 F            1    LIG   0.0000
  16 C16         -0.1255    -6.2405     2.5666 C.ar         1    LIG   0.0000
  17 C17          1.1989    -5.8236     2.5299 C.ar         1    LIG   0.0000
  18 F18          2.0941    -6.4337     3.3052 F            1    LIG   0.0000
  19 C19          1.5558    -4.7700     1.6966 C.ar         1    LIG   0.0000
  20 C20          0.6147    -4.1148     0.9050 C.ar         1    LIG   0.0000
  21 H            3.9689    -0.0053    -0.0283 H            1    LIG   0.0000
  22 H            3.8739     1.4031    -0.8492 H            1    LIG   0.0000
  23 H            3.8992     1.4098     0.7836 H            1    LIG   0.0000
  24 H           -0.7700     2.0314     0.0351 H            1    LIG   0.0000
  25 H           -0.7121    -0.5753     0.0395 H            1    LIG   0.0000
  26 H           -0.3081    -3.5743    -1.6568 H            1    LIG   0.0000
  27 H           -0.6789    -2.0824    -1.1060 H            1    LIG   0.0000
  28 H           -1.9750    -2.9011     0.5835 H            1    LIG   0.0000
  29 H           -2.1811    -4.1267    -0.4757 H            1    LIG   0.0000
  30 H           -0.3988    -7.0027     3.1534 H            1    LIG   0.0000
  31 H            2.5108    -4.4752     1.6644 H            1    LIG   0.0000
@<TRIPOS>BOND
   1        1        2 1
   2        2        3 1
   3        3        4 2
   4        4        5 1
   5        5        6 2
   6        6        2 1
   7        6        7 1
   8        7        8 2
   9        7        9 2
  10        7       10 1
  11       10       11 1
  12       11       12 1
  13       12       13 1
  14       13       14 ar
  15       14       15 1
  16       14       16 ar
  17       16       17 ar
  18       17       18 1
  19       17       19 ar
  20       19       20 ar
  21       20       13 ar
  22       20       10 1
  23        1       21 1
  24        1       22 1
  25        1       23 1
  26        4       24 1
  27        5       25 1
  28       11       26 1
  29       11       27 1
  30       12       28 1
  31       12       29 1
  32       16       30 1
  33       19       31 1

