@<TRIPOS>MOLECULE
*****
 31 33 0 0 0
SMALL
USER_CHARGES

@<TRIPOS>ATOM
      1 C1          3.5813    0.9165   -0.0261 C.3     1  LIG1        0.0000
      2 N2          2.1142    0.8311   -0.0030 N.pl3   1  LIG1        0.0000
      3 N3          1.2930    1.8547    0.0055 N.2     1  LIG1        0.0000
      4 C4          0.0449    1.4518    0.0247 C.2     1  LIG1        0.0000
      5 C5          0.0764    0.0397    0.0278 C.2     1  LIG1        0.0000
      6 C6          1.3904   -0.3215    0.0117 C.2     1  LIG1        0.0000
      7 S7          2.0160   -1.9452    0.0060 S.O2    1  LIG1        0.0000
      8 O8          2.8031   -2.1522   -1.1819 O.2     1  LIG1        0.0000
      9 O9          2.8407   -2.1459    1.1693 O.2     1  LIG1        0.0000
     10 N10         0.7310   -3.0445    0.0295 N.pl3   1  LIG1        0.0000
     11 C11         0.1222   -3.5997    1.2394 C.3     1  LIG1        0.0000
     12 C12        -1.3069   -3.8164    0.7883 C.3     1  LIG1        0.0000
     13 C13        -1.1390   -4.0801   -0.6974 C.3     1  LIG1        0.0000
     14 C14        -2.0081   -4.6797   -1.5952 C.3     1  LIG1        0.0000
     15 F15        -3.1869   -5.1474   -1.1913 F       1  LIG1        0.0000
     16 C16        -1.6331   -4.7758   -2.9308 C.3     1  LIG1        0.0000
     17 C17        -0.4023   -4.2795   -3.3446 C.3     1  LIG1        0.0000
     18 F18        -0.0584   -4.3801   -4.6242 F       1  LIG1        0.0000
     19 C19         0.4536   -3.6845   -2.4241 C.3     1  LIG1        0.0000
     20 C20         0.0884   -3.5817   -1.0858 C.3     1  LIG1        0.0000
     21 H           3.9689   -0.0053   -0.0283 H       1  LIG1        0.0000
     22 H           3.8739    1.4031   -0.8492 H       1  LIG1        0.0000
     23 H           3.8992    1.4098    0.7836 H       1  LIG1        0.0000
     24 H          -0.7700    2.0314    0.0351 H       1  LIG1        0.0000
     25 H          -0.7121   -0.5753    0.0395 H       1  LIG1        0.0000
     26 H           0.1705   -2.9541    2.0016 H       1  LIG1        0.0000
     27 H           0.5560   -4.4610    1.5040 H       1  LIG1        0.0000
     28 H          -1.7180   -4.6014    1.2516 H       1  LIG1        0.0000
     29 H          -1.8655   -3.0031    0.9511 H       1  LIG1        0.0000
     30 H          -2.2488   -5.2018   -3.5936 H       1  LIG1        0.0000
     31 H           1.3376   -3.3280   -2.7264 H       1  LIG1        0.0000
@<TRIPOS>BOND
     1     1     2    1
     2     2     3    1
     3     3     4    2
     4     4     5    1
     5     5     6    2
     6     6     2    1
     7     6     7    1
     8     7     8    2
     9     7     9    2
    10     7    10    1
    11    10    11    1
    12    11    12    1
    13    12    13    1
    14    13    14   ar
    15    14    15    1
    16    14    16   ar
    17    16    17   ar
    18    17    18    1
    19    17    19   ar
    20    19    20   ar
    21    20    13   ar
    22    20    10    1
    23     1    21    1
    24     1    22    1
    25     1    23    1
    26     4    24    1
    27     5    25    1
    28    11    26    1
    29    11    27    1
    30    12    28    1
    31    12    29    1
    32    16    30    1
    33    19    31    1
