@<TRIPOS>MOLECULE
*****
 31 33 0 0 0
SMALL
USER_CHARGES

@<TRIPOS>ATOM
      1 C1          3.5813    0.9165   -0.0261 C.3     1  LIG1        0.0000
      2 N2          2.1142    0.8311   -0.0030 N.pl3   1  LIG1        0.0000
      3 N3          1.2930    1.8547    0.0055 N.2     1  LIG1        0.0000
      4 C4          0.0449    1.4518    0.0247 C.2     1  LIG1        0.0000
      5 C5          0.0764    0.0397    0.0278 C.2     1  LIG1        0.0000
      6 C6          1.3904   -0.3215    0.0117 C.2     1  LIG1        0.0000
      7 S7          2.0160   -1.9452    0.0060 S.O2    1  LIG1        0.0000
      8 O8          3.4553   -1.9050   -0.0171 O.2     1  LIG1        0.0000
      9 O9          1.5740   -2.6340    1.1909 O.2     1  LIG1        0.0000
     10 N10         1.4524   -2.7620   -1.3646 N.pl3   1  LIG1        0.0000
     11 C11         0.0598   -2.8608   -1.8003 C.3     1  LIG1        0.0000
     12 C12         0.0374   -4.2119   -2.4742 C.3     1  LIG1        0.0000
     13 C13         1.4601   -4.3599   -2.9718 C.3     1  LIG1        0.0000
     14 C14         2.0467   -5.1860   -3.9210 C.3     1  LIG1        0.0000
     15 F15         1.2668   -6.0132   -4.6111 F       1  LIG1        0.0000
     16 C16         3.4153   -5.1601   -4.1532 C.3     1  LIG1        0.0000
     17 C17         4.2135   -4.2889   -3.4229 C.3     1  LIG1        0.0000
     18 F18         5.5295   -4.2853   -3.6294 F       1  LIG1        0.0000
     19 C19         3.6219   -3.4524   -2.4837 C.3     1  LIG1        0.0000
     20 C20         2.2486   -3.4744   -2.2493 C.3     1  LIG1        0.0000
     21 H           3.9689   -0.0053   -0.0283 H       1  LIG1        0.0000
     22 H           3.8739    1.4031   -0.8492 H       1  LIG1        0.0000
     23 H           3.8992    1.4098    0.7836 H       1  LIG1        0.0000
     24 H          -0.7700    2.0314    0.0351 H       1  LIG1        0.0000
     25 H          -0.7121   -0.5753    0.0395 H       1  LIG1        0.0000
     26 H          -0.1728   -2.1304   -2.4425 H       1  LIG1        0.0000
     27 H          -0.5674   -2.8324   -1.0220 H       1  LIG1        0.0000
     28 H          -0.1943   -4.9353   -1.8239 H       1  LIG1        0.0000
     29 H          -0.6133   -4.2253   -3.2335 H       1  LIG1        0.0000
     30 H           3.8224   -5.7627   -4.8395 H       1  LIG1        0.0000
     31 H           4.1957   -2.8196   -1.9637 H       1  LIG1        0.0000
@<TRIPOS>BOND
     1     1     2    1
     2     2     3    1
     3     3     4    2
     4     4     5    1
     5     5     6    2
     6     6     2    1
     7     6     7    1
     8     7     8    2
     9     7     9    2
    10     7    10    1
    11    10    11    1
    12    11    12    1
    13    12    13    1
    14    13    14   ar
    15    14    15    1
    16    14    16   ar
    17    16    17   ar
    18    17    18    1
    19    17    19   ar
    20    19    20   ar
    21    20    13   ar
    22    20    10    1
    23     1    21    1
    24     1    22    1
    25     1    23    1
    26     4    24    1
    27     5    25    1
    28    11    26    1
    29    11    27    1
    30    12    28    1
    31    12    29    1
    32    16    30    1
    33    19    31    1
