@<TRIPOS>MOLECULE
*****
 31 33 0 0 0
SMALL
USER_CHARGES

@<TRIPOS>ATOM
      1 C1          3.5813    0.9165   -0.0261 C.3     1  LIG1        0.0000
      2 N2          2.1142    0.8311   -0.0030 N.pl3   1  LIG1        0.0000
      3 N3          1.2930    1.8547    0.0055 N.2     1  LIG1        0.0000
      4 C4          0.0449    1.4518    0.0247 C.2     1  LIG1        0.0000
      5 C5          0.0764    0.0397    0.0278 C.2     1  LIG1        0.0000
      6 C6          1.3904   -0.3215    0.0117 C.2     1  LIG1        0.0000
      7 S7          2.0160   -1.9452    0.0060 S.O2    1  LIG1        0.0000
      8 O8          1.2322   -2.7646    0.8936 O.2     1  LIG1        0.0000
      9 O9          1.9472   -2.4814   -1.3286 O.2     1  LIG1        0.0000
     10 N10         3.6263   -1.9311    0.5260 N.pl3   1  LIG1        0.0000
     11 C11         4.1445   -1.2575    1.7162 C.3     1  LIG1        0.0000
     12 C12         5.5467   -0.8975    1.2871 C.3     1  LIG1        0.0000
     13 C13         5.8795   -1.9861    0.2880 C.3     1  LIG1        0.0000
     14 C14         7.0770   -2.4445   -0.2442 C.3     1  LIG1        0.0000
     15 F15         8.2122   -1.9042    0.1896 F       1  LIG1        0.0000
     16 C16         7.1027   -3.4427   -1.2089 C.3     1  LIG1        0.0000
     17 C17         5.9067   -3.9953   -1.6489 C.3     1  LIG1        0.0000
     18 F18         5.9333   -4.9341   -2.5938 F       1  LIG1        0.0000
     19 C19         4.7101   -3.5450   -1.1039 C.3     1  LIG1        0.0000
     20 C20         4.6805   -2.5448   -0.1343 C.3     1  LIG1        0.0000
     21 H           3.9689   -0.0053   -0.0283 H       1  LIG1        0.0000
     22 H           3.8739    1.4031   -0.8492 H       1  LIG1        0.0000
     23 H           3.8992    1.4098    0.7836 H       1  LIG1        0.0000
     24 H          -0.7700    2.0314    0.0351 H       1  LIG1        0.0000
     25 H          -0.7121   -0.5753    0.0395 H       1  LIG1        0.0000
     26 H           4.1523   -1.8704    2.5063 H       1  LIG1        0.0000
     27 H           3.6099   -0.4407    1.9332 H       1  LIG1        0.0000
     28 H           5.5718    0.0054    0.8581 H       1  LIG1        0.0000
     29 H           6.1771   -0.9155    2.0631 H       1  LIG1        0.0000
     30 H           7.9737   -3.7607   -1.5832 H       1  LIG1        0.0000
     31 H           3.8497   -3.9486   -1.4151 H       1  LIG1        0.0000
@<TRIPOS>BOND
     1     1     2    1
     2     2     3    1
     3     3     4    2
     4     4     5    1
     5     5     6    2
     6     6     2    1
     7     6     7    1
     8     7     8    2
     9     7     9    2
    10     7    10    1
    11    10    11    1
    12    11    12    1
    13    12    13    1
    14    13    14   ar
    15    14    15    1
    16    14    16   ar
    17    16    17   ar
    18    17    18    1
    19    17    19   ar
    20    19    20   ar
    21    20    13   ar
    22    20    10    1
    23     1    21    1
    24     1    22    1
    25     1    23    1
    26     4    24    1
    27     5    25    1
    28    11    26    1
    29    11    27    1
    30    12    28    1
    31    12    29    1
    32    16    30    1
    33    19    31    1
