@<TRIPOS>MOLECULE
*****
 31 33 0 0 0
SMALL
USER_CHARGES

@<TRIPOS>ATOM
      1 C1          3.5813    0.9165   -0.0261 C.3     1  LIG1        0.0000
      2 N2          2.1142    0.8311   -0.0030 N.pl3   1  LIG1        0.0000
      3 N3          1.2930    1.8547    0.0055 N.2     1  LIG1        0.0000
      4 C4          0.0449    1.4518    0.0247 C.2     1  LIG1        0.0000
      5 C5          0.0764    0.0397    0.0278 C.2     1  LIG1        0.0000
      6 C6          1.3904   -0.3215    0.0117 C.2     1  LIG1        0.0000
      7 S7          2.0160   -1.9452    0.0060 S.O2    1  LIG1        0.0000
      8 O8          1.9900   -2.4743    1.3451 O.2     1  LIG1        0.0000
      9 O9          1.2043   -2.7693   -0.8516 O.2     1  LIG1        0.0000
     10 N10         3.6089   -1.9340   -0.5652 N.pl3   1  LIG1        0.0000
     11 C11         4.7660   -2.5443    0.0887 C.3     1  LIG1        0.0000
     12 C12         5.8870   -1.6274   -0.3385 C.3     1  LIG1        0.0000
     13 C13         5.4037   -1.1114   -1.6779 C.3     1  LIG1        0.0000
     14 C14         6.0507   -0.4977   -2.7419 C.3     1  LIG1        0.0000
     15 F15         7.3684   -0.3314   -2.6727 F       1  LIG1        0.0000
     16 C16         5.3496   -0.0616   -3.8581 C.3     1  LIG1        0.0000
     17 C17         3.9738   -0.2447   -3.9125 C.3     1  LIG1        0.0000
     18 F18         3.3005    0.1987   -4.9730 F       1  LIG1        0.0000
     19 C19         3.3304   -0.8727   -2.8525 C.3     1  LIG1        0.0000
     20 C20         4.0310   -1.3133   -1.7316 C.3     1  LIG1        0.0000
     21 H           3.9689   -0.0053   -0.0283 H       1  LIG1        0.0000
     22 H           3.8739    1.4031   -0.8492 H       1  LIG1        0.0000
     23 H           3.8992    1.4098    0.7836 H       1  LIG1        0.0000
     24 H          -0.7700    2.0314    0.0351 H       1  LIG1        0.0000
     25 H          -0.7121   -0.5753    0.0395 H       1  LIG1        0.0000
     26 H           4.9164   -3.4781   -0.2361 H       1  LIG1        0.0000
     27 H           4.6602   -2.5503    1.0831 H       1  LIG1        0.0000
     28 H           6.0090   -0.8790    0.3134 H       1  LIG1        0.0000
     29 H           6.7466   -2.1293   -0.4344 H       1  LIG1        0.0000
     30 H           5.8304    0.3801   -4.6156 H       1  LIG1        0.0000
     31 H           2.3411   -1.0116   -2.8954 H       1  LIG1        0.0000
@<TRIPOS>BOND
     1     1     2    1
     2     2     3    1
     3     3     4    2
     4     4     5    1
     5     5     6    2
     6     6     2    1
     7     6     7    1
     8     7     8    2
     9     7     9    2
    10     7    10    1
    11    10    11    1
    12    11    12    1
    13    12    13    1
    14    13    14   ar
    15    14    15    1
    16    14    16   ar
    17    16    17   ar
    18    17    18    1
    19    17    19   ar
    20    19    20   ar
    21    20    13   ar
    22    20    10    1
    23     1    21    1
    24     1    22    1
    25     1    23    1
    26     4    24    1
    27     5    25    1
    28    11    26    1
    29    11    27    1
    30    12    28    1
    31    12    29    1
    32    16    30    1
    33    19    31    1
