@<TRIPOS>MOLECULE
*****
 31 33 0 0 0
SMALL
USER_CHARGES

@<TRIPOS>ATOM
      1 C1          3.5813    0.9165   -0.0261 C.3     1  LIG1        0.0000
      2 N2          2.1142    0.8311   -0.0030 N.pl3   1  LIG1        0.0000
      3 N3          1.2930    1.8547    0.0055 N.2     1  LIG1        0.0000
      4 C4          0.0449    1.4518    0.0247 C.2     1  LIG1        0.0000
      5 C5          0.0764    0.0397    0.0278 C.2     1  LIG1        0.0000
      6 C6          1.3904   -0.3215    0.0117 C.2     1  LIG1        0.0000
      7 S7          2.0160   -1.9452    0.0060 S.O2    1  LIG1        0.0000
      8 O8          3.0194   -2.0766    1.0305 O.2     1  LIG1        0.0000
      9 O9          0.9449   -2.8731    0.2614 O.2     1  LIG1        0.0000
     10 N10         2.7035   -2.2792   -1.5026 N.pl3   1  LIG1        0.0000
     11 C11         1.9916   -2.8660   -2.6390 C.3     1  LIG1        0.0000
     12 C12         2.7257   -2.2468   -3.8097 C.3     1  LIG1        0.0000
     13 C13         4.1205   -2.0450   -3.2449 C.3     1  LIG1        0.0000
     14 C14         5.3237   -1.8470   -3.9035 C.3     1  LIG1        0.0000
     15 F15         5.3768   -1.8341   -5.2333 F       1  LIG1        0.0000
     16 C16         6.4767   -1.6507   -3.1513 C.3     1  LIG1        0.0000
     17 C17         6.4108   -1.6602   -1.7629 C.3     1  LIG1        0.0000
     18 F18         7.5218   -1.4723   -1.0586 F       1  LIG1        0.0000
     19 C19         5.1918   -1.8636   -1.1250 C.3     1  LIG1        0.0000
     20 C20         4.0318   -2.0598   -1.8673 C.3     1  LIG1        0.0000
     21 H           3.9689   -0.0053   -0.0283 H       1  LIG1        0.0000
     22 H           3.8739    1.4031   -0.8492 H       1  LIG1        0.0000
     23 H           3.8992    1.4098    0.7836 H       1  LIG1        0.0000
     24 H          -0.7700    2.0314    0.0351 H       1  LIG1        0.0000
     25 H          -0.7121   -0.5753    0.0395 H       1  LIG1        0.0000
     26 H           1.0253   -2.6087   -2.6367 H       1  LIG1        0.0000
     27 H           2.0711   -3.8628   -2.6443 H       1  LIG1        0.0000
     28 H           2.7391   -2.8639   -4.5965 H       1  LIG1        0.0000
     29 H           2.3132   -1.3757   -4.0764 H       1  LIG1        0.0000
     30 H           7.3532   -1.5025   -3.6093 H       1  LIG1        0.0000
     31 H           5.1490   -1.8687   -0.1260 H       1  LIG1        0.0000
@<TRIPOS>BOND
     1     1     2    1
     2     2     3    1
     3     3     4    2
     4     4     5    1
     5     5     6    2
     6     6     2    1
     7     6     7    1
     8     7     8    2
     9     7     9    2
    10     7    10    1
    11    10    11    1
    12    11    12    1
    13    12    13    1
    14    13    14   ar
    15    14    15    1
    16    14    16   ar
    17    16    17   ar
    18    17    18    1
    19    17    19   ar
    20    19    20   ar
    21    20    13   ar
    22    20    10    1
    23     1    21    1
    24     1    22    1
    25     1    23    1
    26     4    24    1
    27     5    25    1
    28    11    26    1
    29    11    27    1
    30    12    28    1
    31    12    29    1
    32    16    30    1
    33    19    31    1
