@<TRIPOS>MOLECULE

  49   53
SMALL
USER_CHARGES
@<TRIPOS>ATOM
   1 O1           1.1208     3.1391     3.3082 O.3          1    LIG  -1.0000
   2 C2           1.5566     3.7230     2.1696 C.2          1    LIG   0.0000
   3 C3           2.3637     4.8336     2.1843 C.2          1    LIG   0.0000
   4 C4           2.7966     5.4469     3.3908 C.2          1    LIG   0.0000
   5 C5           3.6008     6.5564     3.3797 C.2          1    LIG   0.0000
   6 C6           4.0170     7.1147     2.1422 C.2          1    LIG   0.0000
   7 C7           3.6139     6.5445     0.9626 C.2          1    LIG   0.0000
   8 C8           2.7800     5.3935     0.9478 C.2          1    LIG   0.0000
   9 N9           2.3880     4.8411    -0.1863 N.2          1    LIG   0.0000
  10 C10          1.5828     3.7308    -0.2089 C.2          1    LIG   0.0000
  11 S11          1.1369     3.0976    -1.6210 S.2          1    LIG   0.0000
  12 N12          1.1688     3.1750     0.9744 N.pl3        1    LIG   0.0000
  13 N13          0.3750     2.0825     0.9872 N.2          1    LIG   0.0000
  14 C14          1.0000     1.0000     1.0000 C.2          1    LIG   0.0000
  15 C15          2.4496     1.0000     1.0000 C.2          1    LIG   0.0000
  16 C16          3.2562     1.5356     0.0428 C.2          1    LIG   0.0000
  17 N17          4.5332     1.3048     0.4527 N.pl3        1    LIG   0.0000
  18 C18          5.7369     1.7191    -0.2817 C.3          1    LIG   0.0000
  19 C19          6.1496     3.1119     0.1665 C.ar         1    LIG   0.0000
  20 C20          5.6429     4.2259    -0.4948 C.ar         1    LIG   0.0000
  21 C21          6.0263     5.4965    -0.0786 C.ar         1    LIG   0.0000
  22 C22          6.9073     5.6434     0.9885 C.ar         1    LIG   0.0000
  23 C23          7.4089     4.5238     1.6441 C.ar         1    LIG   0.0000
  24 C24          7.0310     3.2492     1.2338 C.ar         1    LIG   0.0000
  25 N25          4.5183     0.6621     1.5981 N.2          1    LIG   0.0000
  26 C26          3.2835     0.4452     1.9876 C.2          1    LIG   0.0000
  27 C27          2.8654    -0.2322     3.2000 C.ar         1    LIG   0.0000
  28 C28          1.7806     0.2524     3.9241 C.ar         1    LIG   0.0000
  29 C29          1.3844    -0.4015     5.0857 C.ar         1    LIG   0.0000
  30 C30          2.0803    -1.5316     5.5046 C.ar         1    LIG   0.0000
  31 N31          3.1227    -1.9806     4.7900 N.ar         1    LIG   0.0000
  32 C32          3.5228    -1.3654     3.6671 C.ar         1    LIG   0.0000
  33 H            2.5082     5.0605     4.2668 H            1    LIG   0.0000
  34 H            3.8939     6.9717     4.2409 H            1    LIG   0.0000
  35 H            4.6042     7.9241     2.1313 H            1    LIG   0.0000
  36 H            3.9122     6.9456     0.0964 H            1    LIG   0.0000
  37 H            0.5000     0.1340     1.0102 H            1    LIG   0.0000
  38 H            2.9685     2.0040    -0.7926 H            1    LIG   0.0000
  39 H            5.5423     1.7285    -1.2625 H            1    LIG   0.0000
  40 H            6.4791     1.0754    -0.0953 H            1    LIG   0.0000
  41 H            5.0099     4.1144    -1.2609 H            1    LIG   0.0000
  42 H            5.6687     6.3047    -0.5465 H            1    LIG   0.0000
  43 H            7.1811     6.5582     1.2854 H            1    LIG   0.0000
  44 H            8.0414     4.6350     2.4107 H            1    LIG   0.0000
  45 H            7.3890     2.4408     1.7010 H            1    LIG   0.0000
  46 H            1.2892     1.0652     3.6113 H            1    LIG   0.0000
  47 H            0.6065    -0.0628     5.6151 H            1    LIG   0.0000
  48 H            1.8032    -2.0088     6.3385 H            1    LIG   0.0000
  49 H            4.3046    -1.7266     3.1588 H            1    LIG   0.0000
@<TRIPOS>BOND
   1        1        2 1
   2        2        3 2
   3        3        4 1
   4        4        5 2
   5        5        6 1
   6        6        7 2
   7        7        8 1
   8        8        3 1
   9        8        9 2
  10        9       10 1
  11       10       11 2
  12       10       12 1
  13       12        2 1
  14       12       13 1
  15       13       14 2
  16       14       15 1
  17       15       16 2
  18       16       17 1
  19       17       18 1
  20       18       19 1
  21       19       20 ar
  22       20       21 ar
  23       21       22 ar
  24       22       23 ar
  25       23       24 ar
  26       24       19 ar
  27       17       25 1
  28       25       26 2
  29       26       15 1
  30       26       27 1
  31       27       28 ar
  32       28       29 ar
  33       29       30 ar
  34       30       31 ar
  35       31       32 ar
  36       32       27 ar
  37        4       33 1
  38        5       34 1
  39        6       35 1
  40        7       36 1
  41       14       37 1
  42       16       38 1
  43       18       39 1
  44       18       40 1
  45       20       41 1
  46       21       42 1
  47       22       43 1
  48       23       44 1
  49       24       45 1
  50       28       46 1
  51       29       47 1
  52       30       48 1
  53       32       49 1

@<TRIPOS>MOLECULE

  49   53
SMALL
USER_CHARGES
@<TRIPOS>ATOM
   1 O1           0.1794     3.7717    -1.0543 O.3          1    LIG  -1.0000
   2 C2           1.0707     4.0496    -0.0766 C.2          1    LIG   0.0000
   3 C3           1.8661     5.1681    -0.1138 C.2          1    LIG   0.0000
   4 C4           1.8109     6.1093    -1.1768 C.2          1    LIG   0.0000
   5 C5           2.6166     7.2176    -1.1924 C.2          1    LIG   0.0000
   6 C6           3.5308     7.4412    -0.1291 C.2          1    LIG   0.0000
   7 C7           3.6062     6.5495     0.9093 C.2          1    LIG   0.0000
   8 C8           2.7811     5.3926     0.9483 C.2          1    LIG   0.0000
   9 N9           2.8510     4.5299     1.9461 N.2          1    LIG   0.0000
  10 C10          2.0587     3.4109     1.9907 C.2          1    LIG   0.0000
  11 S11          2.1845     2.3936     3.2329 S.2          1    LIG   0.0000
  12 N12          1.1688     3.1750     0.9744 N.pl3        1    LIG   0.0000
  13 N13          0.3750     2.0825     0.9872 N.2          1    LIG   0.0000
  14 C14          1.0000     1.0000     1.0000 C.2          1    LIG   0.0000
  15 C15          2.4496     1.0000     1.0000 C.2          1    LIG   0.0000
  16 C16          3.2562     1.5356     0.0428 C.2          1    LIG   0.0000
  17 N17          4.5332     1.3048     0.4527 N.pl3        1    LIG   0.0000
  18 C18          5.7369     1.7191    -0.2817 C.3          1    LIG   0.0000
  19 C19          6.1496     3.1119     0.1665 C.ar         1    LIG   0.0000
  20 C20          5.6429     4.2259    -0.4948 C.ar         1    LIG   0.0000
  21 C21          6.0263     5.4965    -0.0786 C.ar         1    LIG   0.0000
  22 C22          6.9073     5.6434     0.9885 C.ar         1    LIG   0.0000
  23 C23          7.4089     4.5238     1.6441 C.ar         1    LIG   0.0000
  24 C24          7.0310     3.2492     1.2338 C.ar         1    LIG   0.0000
  25 N25          4.5183     0.6621     1.5981 N.2          1    LIG   0.0000
  26 C26          3.2835     0.4452     1.9876 C.2          1    LIG   0.0000
  27 C27          2.8654    -0.2322     3.2000 C.ar         1    LIG   0.0000
  28 C28          1.7803    -1.1024     3.1671 C.ar         1    LIG   0.0000
  29 C29          1.3843    -1.7491     4.3328 C.ar         1    LIG   0.0000
  30 C30          2.0814    -1.5148     5.5144 C.ar         1    LIG   0.0000
  31 N31          3.1247    -0.6720     5.5218 N.ar         1    LIG   0.0000
  32 C32          3.5237    -0.0369     4.4097 C.ar         1    LIG   0.0000
  33 H            1.1703     5.9596    -1.9299 H            1    LIG   0.0000
  34 H            2.5610     7.8672    -1.9507 H            1    LIG   0.0000
  35 H            4.1196     8.2494    -0.1378 H            1    LIG   0.0000
  36 H            4.2536     6.7159     1.6531 H            1    LIG   0.0000
  37 H            0.5000     0.1340     1.0102 H            1    LIG   0.0000
  38 H            2.9685     2.0040    -0.7926 H            1    LIG   0.0000
  39 H            5.5423     1.7285    -1.2625 H            1    LIG   0.0000
  40 H            6.4791     1.0754    -0.0953 H            1    LIG   0.0000
  41 H            5.0099     4.1144    -1.2609 H            1    LIG   0.0000
  42 H            5.6687     6.3047    -0.5465 H            1    LIG   0.0000
  43 H            7.1811     6.5582     1.2854 H            1    LIG   0.0000
  44 H            8.0414     4.6350     2.4107 H            1    LIG   0.0000
  45 H            7.3890     2.4408     1.7010 H            1    LIG   0.0000
  46 H            1.2887    -1.2619     2.3110 H            1    LIG   0.0000
  47 H            0.6057    -2.3765     4.3222 H            1    LIG   0.0000
  48 H            1.8045    -1.9750     6.3579 H            1    LIG   0.0000
  49 H            4.3053     0.5855     4.4508 H            1    LIG   0.0000
@<TRIPOS>BOND
   1        1        2 1
   2        2        3 2
   3        3        4 1
   4        4        5 2
   5        5        6 1
   6        6        7 2
   7        7        8 1
   8        8        3 1
   9        8        9 2
  10        9       10 1
  11       10       11 2
  12       10       12 1
  13       12        2 1
  14       12       13 1
  15       13       14 2
  16       14       15 1
  17       15       16 2
  18       16       17 1
  19       17       18 1
  20       18       19 1
  21       19       20 ar
  22       20       21 ar
  23       21       22 ar
  24       22       23 ar
  25       23       24 ar
  26       24       19 ar
  27       17       25 1
  28       25       26 2
  29       26       15 1
  30       26       27 1
  31       27       28 ar
  32       28       29 ar
  33       29       30 ar
  34       30       31 ar
  35       31       32 ar
  36       32       27 ar
  37        4       33 1
  38        5       34 1
  39        6       35 1
  40        7       36 1
  41       14       37 1
  42       16       38 1
  43       18       39 1
  44       18       40 1
  45       20       41 1
  46       21       42 1
  47       22       43 1
  48       23       44 1
  49       24       45 1
  50       28       46 1
  51       29       47 1
  52       30       48 1
  53       32       49 1

@<TRIPOS>MOLECULE

  49   53
SMALL
USER_CHARGES
@<TRIPOS>ATOM
   1 O1           1.1208     3.1391     3.3082 O.3          1    LIG  -1.0000
   2 C2           1.5566     3.7230     2.1696 C.2          1    LIG   0.0000
   3 C3           2.3637     4.8336     2.1843 C.2          1    LIG   0.0000
   4 C4           2.7966     5.4469     3.3908 C.2          1    LIG   0.0000
   5 C5           3.6008     6.5564     3.3797 C.2          1    LIG   0.0000
   6 C6           4.0170     7.1147     2.1422 C.2          1    LIG   0.0000
   7 C7           3.6139     6.5445     0.9626 C.2          1    LIG   0.0000
   8 C8           2.7800     5.3935     0.9478 C.2          1    LIG   0.0000
   9 N9           2.3880     4.8411    -0.1863 N.2          1    LIG   0.0000
  10 C10          1.5828     3.7308    -0.2089 C.2          1    LIG   0.0000
  11 S11          1.1369     3.0976    -1.6210 S.2          1    LIG   0.0000
  12 N12          1.1688     3.1750     0.9744 N.pl3        1    LIG   0.0000
  13 N13          0.3750     2.0825     0.9872 N.2          1    LIG   0.0000
  14 C14          1.0000     1.0000     1.0000 C.2          1    LIG   0.0000
  15 C15          2.4496     1.0000     1.0000 C.2          1    LIG   0.0000
  16 C16          3.2562     1.5356     0.0428 C.2          1    LIG   0.0000
  17 N17          4.5332     1.3048     0.4527 N.pl3        1    LIG   0.0000
  18 C18          5.7369     1.7191    -0.2817 C.3          1    LIG   0.0000
  19 C19          6.1543     0.6119    -1.2362 C.ar         1    LIG   0.0000
  20 C20          7.0368    -0.3727    -0.8042 C.ar         1    LIG   0.0000
  21 C21          7.4140    -1.3815    -1.6843 C.ar         1    LIG   0.0000
  22 C22          6.9094    -1.3989    -2.9811 C.ar         1    LIG   0.0000
  23 C23          6.0271    -0.4103    -3.4045 C.ar         1    LIG   0.0000
  24 C24          5.6453     0.6028    -2.5307 C.ar         1    LIG   0.0000
  25 N25          4.5183     0.6621     1.5981 N.2          1    LIG   0.0000
  26 C26          3.2835     0.4452     1.9876 C.2          1    LIG   0.0000
  27 C27          2.8654    -0.2322     3.2000 C.ar         1    LIG   0.0000
  28 C28          1.7806     0.2524     3.9241 C.ar         1    LIG   0.0000
  29 C29          1.3844    -0.4015     5.0857 C.ar         1    LIG   0.0000
  30 C30          2.0803    -1.5316     5.5046 C.ar         1    LIG   0.0000
  31 N31          3.1227    -1.9806     4.7900 N.ar         1    LIG   0.0000
  32 C32          3.5228    -1.3654     3.6671 C.ar         1    LIG   0.0000
  33 H            2.5082     5.0605     4.2668 H            1    LIG   0.0000
  34 H            3.8939     6.9717     4.2409 H            1    LIG   0.0000
  35 H            4.6042     7.9241     2.1313 H            1    LIG   0.0000
  36 H            3.9122     6.9456     0.0964 H            1    LIG   0.0000
  37 H            0.5000     0.1340     1.0102 H            1    LIG   0.0000
  38 H            2.9685     2.0040    -0.7926 H            1    LIG   0.0000
  39 H            6.4776     1.8976     0.3660 H            1    LIG   0.0000
  40 H            5.5407     2.5507    -0.8012 H            1    LIG   0.0000
  41 H            7.3961    -0.3555     0.1288 H            1    LIG   0.0000
  42 H            8.0480    -2.0946    -1.3851 H            1    LIG   0.0000
  43 H            7.1824    -2.1255    -3.6116 H            1    LIG   0.0000
  44 H            5.6672    -0.4277    -4.3374 H            1    LIG   0.0000
  45 H            5.0119     1.3164    -2.8300 H            1    LIG   0.0000
  46 H            1.2892     1.0652     3.6113 H            1    LIG   0.0000
  47 H            0.6065    -0.0628     5.6151 H            1    LIG   0.0000
  48 H            1.8032    -2.0088     6.3385 H            1    LIG   0.0000
  49 H            4.3046    -1.7266     3.1588 H            1    LIG   0.0000
@<TRIPOS>BOND
   1        1        2 1
   2        2        3 2
   3        3        4 1
   4        4        5 2
   5        5        6 1
   6        6        7 2
   7        7        8 1
   8        8        3 1
   9        8        9 2
  10        9       10 1
  11       10       11 2
  12       10       12 1
  13       12        2 1
  14       12       13 1
  15       13       14 2
  16       14       15 1
  17       15       16 2
  18       16       17 1
  19       17       18 1
  20       18       19 1
  21       19       20 ar
  22       20       21 ar
  23       21       22 ar
  24       22       23 ar
  25       23       24 ar
  26       24       19 ar
  27       17       25 1
  28       25       26 2
  29       26       15 1
  30       26       27 1
  31       27       28 ar
  32       28       29 ar
  33       29       30 ar
  34       30       31 ar
  35       31       32 ar
  36       32       27 ar
  37        4       33 1
  38        5       34 1
  39        6       35 1
  40        7       36 1
  41       14       37 1
  42       16       38 1
  43       18       39 1
  44       18       40 1
  45       20       41 1
  46       21       42 1
  47       22       43 1
  48       23       44 1
  49       24       45 1
  50       28       46 1
  51       29       47 1
  52       30       48 1
  53       32       49 1

@<TRIPOS>MOLECULE

  49   53
SMALL
USER_CHARGES
@<TRIPOS>ATOM
   1 O1           1.1234     3.0822    -1.3580 O.3          1    LIG  -1.0000
   2 C2           1.5567     3.6946    -0.2334 C.2          1    LIG   0.0000
   3 C3           2.3634     4.8049    -0.2743 C.2          1    LIG   0.0000
   4 C4           2.7993     5.3874    -1.4948 C.2          1    LIG   0.0000
   5 C5           3.6060     6.4950    -1.5099 C.2          1    LIG   0.0000
   6 C6           4.0223     7.0823    -0.2859 C.2          1    LIG   0.0000
   7 C7           3.6177     6.5411     0.9069 C.2          1    LIG   0.0000
   8 C8           2.7810     5.3927     0.9487 C.2          1    LIG   0.0000
   9 N9           2.3896     4.8669     2.0955 N.2          1    LIG   0.0000
  10 C10          1.5828     3.7586     2.1442 C.2          1    LIG   0.0000
  11 S11          1.1342     3.1607     3.5708 S.2          1    LIG   0.0000
  12 N12          1.1688     3.1750     0.9744 N.pl3        1    LIG   0.0000
  13 N13          0.3750     2.0825     0.9872 N.2          1    LIG   0.0000
  14 C14          1.0000     1.0000     1.0000 C.2          1    LIG   0.0000
  15 C15          2.4496     1.0000     1.0000 C.2          1    LIG   0.0000
  16 C16          3.2562     1.5356     0.0428 C.2          1    LIG   0.0000
  17 N17          4.5332     1.3048     0.4527 N.pl3        1    LIG   0.0000
  18 C18          5.7369     1.7191    -0.2817 C.3          1    LIG   0.0000
  19 C19          6.1543     0.6119    -1.2362 C.ar         1    LIG   0.0000
  20 C20          7.0368    -0.3727    -0.8042 C.ar         1    LIG   0.0000
  21 C21          7.4140    -1.3815    -1.6843 C.ar         1    LIG   0.0000
  22 C22          6.9094    -1.3989    -2.9811 C.ar         1    LIG   0.0000
  23 C23          6.0271    -0.4103    -3.4045 C.ar         1    LIG   0.0000
  24 C24          5.6453     0.6028    -2.5307 C.ar         1    LIG   0.0000
  25 N25          4.5183     0.6621     1.5981 N.2          1    LIG   0.0000
  26 C26          3.2835     0.4452     1.9876 C.2          1    LIG   0.0000
  27 C27          2.8654    -0.2322     3.2000 C.ar         1    LIG   0.0000
  28 C28          1.7806     0.2524     3.9241 C.ar         1    LIG   0.0000
  29 C29          1.3844    -0.4015     5.0857 C.ar         1    LIG   0.0000
  30 C30          2.0803    -1.5316     5.5046 C.ar         1    LIG   0.0000
  31 N31          3.1227    -1.9806     4.7900 N.ar         1    LIG   0.0000
  32 C32          3.5228    -1.3654     3.6671 C.ar         1    LIG   0.0000
  33 H            2.5112     4.9803    -2.3615 H            1    LIG   0.0000
  34 H            3.9008     6.8887    -2.3806 H            1    LIG   0.0000
  35 H            4.6106     7.8908    -0.2940 H            1    LIG   0.0000
  36 H            3.9168     6.9619     1.7633 H            1    LIG   0.0000
  37 H            0.5000     0.1340     1.0102 H            1    LIG   0.0000
  38 H            2.9685     2.0040    -0.7926 H            1    LIG   0.0000
  39 H            6.4776     1.8976     0.3660 H            1    LIG   0.0000
  40 H            5.5407     2.5507    -0.8012 H            1    LIG   0.0000
  41 H            7.3961    -0.3555     0.1288 H            1    LIG   0.0000
  42 H            8.0480    -2.0946    -1.3851 H            1    LIG   0.0000
  43 H            7.1824    -2.1255    -3.6116 H            1    LIG   0.0000
  44 H            5.6672    -0.4277    -4.3374 H            1    LIG   0.0000
  45 H            5.0119     1.3164    -2.8300 H            1    LIG   0.0000
  46 H            1.2892     1.0652     3.6113 H            1    LIG   0.0000
  47 H            0.6065    -0.0628     5.6151 H            1    LIG   0.0000
  48 H            1.8032    -2.0088     6.3385 H            1    LIG   0.0000
  49 H            4.3046    -1.7266     3.1588 H            1    LIG   0.0000
@<TRIPOS>BOND
   1        1        2 1
   2        2        3 2
   3        3        4 1
   4        4        5 2
   5        5        6 1
   6        6        7 2
   7        7        8 1
   8        8        3 1
   9        8        9 2
  10        9       10 1
  11       10       11 2
  12       10       12 1
  13       12        2 1
  14       12       13 1
  15       13       14 2
  16       14       15 1
  17       15       16 2
  18       16       17 1
  19       17       18 1
  20       18       19 1
  21       19       20 ar
  22       20       21 ar
  23       21       22 ar
  24       22       23 ar
  25       23       24 ar
  26       24       19 ar
  27       17       25 1
  28       25       26 2
  29       26       15 1
  30       26       27 1
  31       27       28 ar
  32       28       29 ar
  33       29       30 ar
  34       30       31 ar
  35       31       32 ar
  36       32       27 ar
  37        4       33 1
  38        5       34 1
  39        6       35 1
  40        7       36 1
  41       14       37 1
  42       16       38 1
  43       18       39 1
  44       18       40 1
  45       20       41 1
  46       21       42 1
  47       22       43 1
  48       23       44 1
  49       24       45 1
  50       28       46 1
  51       29       47 1
  52       30       48 1
  53       32       49 1

@<TRIPOS>MOLECULE

  49   53
SMALL
USER_CHARGES
@<TRIPOS>ATOM
   1 O1           2.0670     2.4004    -1.0365 O.3          1    LIG  -1.0000
   2 C2           2.0428     3.3434    -0.0682 C.2          1    LIG   0.0000
   3 C3           2.8607     4.4456    -0.1054 C.2          1    LIG   0.0000
   4 C4           3.7873     4.6735    -1.1583 C.2          1    LIG   0.0000
   5 C5           4.5947     5.7806    -1.1723 C.2          1    LIG   0.0000
   6 C6           4.5131     6.7277    -0.1174 C.2          1    LIG   0.0000
   7 C7           3.6287     6.5331     0.9119 C.2          1    LIG   0.0000
   8 C8           2.7808     5.3929     0.9490 C.2          1    LIG   0.0000
   9 N9           1.9279     5.2005     1.9391 N.2          1    LIG   0.0000
  10 C10          1.1068     4.1025     1.9825 C.2          1    LIG   0.0000
  11 S11          0.0842     3.9194     3.2132 S.2          1    LIG   0.0000
  12 N12          1.1688     3.1750     0.9744 N.pl3        1    LIG   0.0000
  13 N13          0.3750     2.0825     0.9872 N.2          1    LIG   0.0000
  14 C14          1.0000     1.0000     1.0000 C.2          1    LIG   0.0000
  15 C15          2.4496     1.0000     1.0000 C.2          1    LIG   0.0000
  16 C16          3.2562     1.5612     1.9425 C.2          1    LIG   0.0000
  17 N17          4.5332     1.3216     1.5376 N.pl3        1    LIG   0.0000
  18 C18          5.7369     1.7504     2.2636 C.3          1    LIG   0.0000
  19 C19          6.1496     0.6659     3.2458 C.ar         1    LIG   0.0000
  20 C20          5.6429     0.6816     4.5411 C.ar         1    LIG   0.0000
  21 C21          6.0263    -0.3141     5.4334 C.ar         1    LIG   0.0000
  22 C22          6.9073    -1.3117     5.0270 C.ar         1    LIG   0.0000
  23 C23          7.4089    -1.3197     3.7296 C.ar         1    LIG   0.0000
  24 C24          7.0310    -0.3271     2.8310 C.ar         1    LIG   0.0000
  25 N25          4.5183     0.6510     0.4084 N.2          1    LIG   0.0000
  26 C26          3.2835     0.4221     0.0257 C.2          1    LIG   0.0000
  27 C27          2.8654    -0.2892    -1.1671 C.ar         1    LIG   0.0000
  28 C28          1.7806    -1.1585    -1.1095 C.ar         1    LIG   0.0000
  29 C29          1.3844    -1.8376    -2.2566 C.ar         1    LIG   0.0000
  30 C30          2.0803    -1.6353    -3.4447 C.ar         1    LIG   0.0000
  31 N31          3.1227    -0.7920    -3.4763 N.ar         1    LIG   0.0000
  32 C32          3.5228    -0.1271    -2.3821 C.ar         1    LIG   0.0000
  33 H            3.8517     4.0116    -1.9051 H            1    LIG   0.0000
  34 H            5.2397     5.9212    -1.9235 H            1    LIG   0.0000
  35 H            5.1008     7.5367    -0.1254 H            1    LIG   0.0000
  36 H            3.5793     7.2058     1.6502 H            1    LIG   0.0000
  37 H            0.5000     0.1340     1.0102 H            1    LIG   0.0000
  38 H            2.9685     2.0505     2.7658 H            1    LIG   0.0000
  39 H            5.5423     2.5952     2.7621 H            1    LIG   0.0000
  40 H            6.4791     1.9108     1.6129 H            1    LIG   0.0000
  41 H            5.0099     1.4008     4.8276 H            1    LIG   0.0000
  42 H            5.6687    -0.3131     6.3673 H            1    LIG   0.0000
  43 H            7.1811    -2.0263     5.6708 H            1    LIG   0.0000
  44 H            8.0414    -2.0392     3.4427 H            1    LIG   0.0000
  45 H            7.3890    -0.3275     1.8973 H            1    LIG   0.0000
  46 H            1.2892    -1.2941    -0.2492 H            1    LIG   0.0000
  47 H            0.6065    -2.4654    -2.2280 H            1    LIG   0.0000
  48 H            1.8032    -2.1189    -4.2750 H            1    LIG   0.0000
  49 H            4.3046     0.4937    -2.4407 H            1    LIG   0.0000
@<TRIPOS>BOND
   1        1        2 1
   2        2        3 2
   3        3        4 1
   4        4        5 2
   5        5        6 1
   6        6        7 2
   7        7        8 1
   8        8        3 1
   9        8        9 2
  10        9       10 1
  11       10       11 2
  12       10       12 1
  13       12        2 1
  14       12       13 1
  15       13       14 2
  16       14       15 1
  17       15       16 2
  18       16       17 1
  19       17       18 1
  20       18       19 1
  21       19       20 ar
  22       20       21 ar
  23       21       22 ar
  24       22       23 ar
  25       23       24 ar
  26       24       19 ar
  27       17       25 1
  28       25       26 2
  29       26       15 1
  30       26       27 1
  31       27       28 ar
  32       28       29 ar
  33       29       30 ar
  34       30       31 ar
  35       31       32 ar
  36       32       27 ar
  37        4       33 1
  38        5       34 1
  39        6       35 1
  40        7       36 1
  41       14       37 1
  42       16       38 1
  43       18       39 1
  44       18       40 1
  45       20       41 1
  46       21       42 1
  47       22       43 1
  48       23       44 1
  49       24       45 1
  50       28       46 1
  51       29       47 1
  52       30       48 1
  53       32       49 1

@<TRIPOS>MOLECULE

  49   53
SMALL
USER_CHARGES
@<TRIPOS>ATOM
   1 O1           0.1771     3.8209     2.9868 O.3          1    LIG  -1.0000
   2 C2           1.0706     4.0742     2.0044 C.2          1    LIG   0.0000
   3 C3           1.8664     5.1930     2.0155 C.2          1    LIG   0.0000
   4 C4           1.8086     6.1608     3.0542 C.2          1    LIG   0.0000
   5 C5           2.6121     7.2708     3.0421 C.2          1    LIG   0.0000
   6 C6           3.5262     7.4693     1.9737 C.2          1    LIG   0.0000
   7 C7           3.6029     6.5524     0.9576 C.2          1    LIG   0.0000
   8 C8           2.7802     5.3933     0.9475 C.2          1    LIG   0.0000
   9 N9           2.8497     4.5076    -0.0299 N.2          1    LIG   0.0000
  10 C10          2.0587     3.3869    -0.0472 C.2          1    LIG   0.0000
  11 S11          2.1868     2.3389    -1.2634 S.2          1    LIG   0.0000
  12 N12          1.1688     3.1750     0.9744 N.pl3        1    LIG   0.0000
  13 N13          0.3750     2.0825     0.9872 N.2          1    LIG   0.0000
  14 C14          1.0000     1.0000     1.0000 C.2          1    LIG   0.0000
  15 C15          2.4496     1.0000     1.0000 C.2          1    LIG   0.0000
  16 C16          3.2562     1.5612     1.9425 C.2          1    LIG   0.0000
  17 N17          4.5332     1.3216     1.5376 N.pl3        1    LIG   0.0000
  18 C18          5.7369     1.7504     2.2636 C.3          1    LIG   0.0000
  19 C19          6.1496     0.6659     3.2458 C.ar         1    LIG   0.0000
  20 C20          5.6429     0.6816     4.5411 C.ar         1    LIG   0.0000
  21 C21          6.0263    -0.3141     5.4334 C.ar         1    LIG   0.0000
  22 C22          6.9073    -1.3117     5.0270 C.ar         1    LIG   0.0000
  23 C23          7.4089    -1.3197     3.7296 C.ar         1    LIG   0.0000
  24 C24          7.0310    -0.3271     2.8310 C.ar         1    LIG   0.0000
  25 N25          4.5183     0.6510     0.4084 N.2          1    LIG   0.0000
  26 C26          3.2835     0.4221     0.0257 C.2          1    LIG   0.0000
  27 C27          2.8654    -0.2892    -1.1671 C.ar         1    LIG   0.0000
  28 C28          1.7806    -1.1585    -1.1095 C.ar         1    LIG   0.0000
  29 C29          1.3844    -1.8376    -2.2566 C.ar         1    LIG   0.0000
  30 C30          2.0803    -1.6353    -3.4447 C.ar         1    LIG   0.0000
  31 N31          3.1227    -0.7920    -3.4763 N.ar         1    LIG   0.0000
  32 C32          3.5228    -0.1271    -2.3821 C.ar         1    LIG   0.0000
  33 H            1.1677     6.0291     3.8104 H            1    LIG   0.0000
  34 H            2.5550     7.9391     3.7838 H            1    LIG   0.0000
  35 H            4.1140     8.2782     1.9626 H            1    LIG   0.0000
  36 H            4.2496     6.7018     0.2096 H            1    LIG   0.0000
  37 H            0.5000     0.1340     1.0102 H            1    LIG   0.0000
  38 H            2.9685     2.0505     2.7658 H            1    LIG   0.0000
  39 H            5.5423     2.5952     2.7621 H            1    LIG   0.0000
  40 H            6.4791     1.9108     1.6129 H            1    LIG   0.0000
  41 H            5.0099     1.4008     4.8276 H            1    LIG   0.0000
  42 H            5.6687    -0.3131     6.3673 H            1    LIG   0.0000
  43 H            7.1811    -2.0263     5.6708 H            1    LIG   0.0000
  44 H            8.0414    -2.0392     3.4427 H            1    LIG   0.0000
  45 H            7.3890    -0.3275     1.8973 H            1    LIG   0.0000
  46 H            1.2892    -1.2941    -0.2492 H            1    LIG   0.0000
  47 H            0.6065    -2.4654    -2.2280 H            1    LIG   0.0000
  48 H            1.8032    -2.1189    -4.2750 H            1    LIG   0.0000
  49 H            4.3046     0.4937    -2.4407 H            1    LIG   0.0000
@<TRIPOS>BOND
   1        1        2 1
   2        2        3 2
   3        3        4 1
   4        4        5 2
   5        5        6 1
   6        6        7 2
   7        7        8 1
   8        8        3 1
   9        8        9 2
  10        9       10 1
  11       10       11 2
  12       10       12 1
  13       12        2 1
  14       12       13 1
  15       13       14 2
  16       14       15 1
  17       15       16 2
  18       16       17 1
  19       17       18 1
  20       18       19 1
  21       19       20 ar
  22       20       21 ar
  23       21       22 ar
  24       22       23 ar
  25       23       24 ar
  26       24       19 ar
  27       17       25 1
  28       25       26 2
  29       26       15 1
  30       26       27 1
  31       27       28 ar
  32       28       29 ar
  33       29       30 ar
  34       30       31 ar
  35       31       32 ar
  36       32       27 ar
  37        4       33 1
  38        5       34 1
  39        6       35 1
  40        7       36 1
  41       14       37 1
  42       16       38 1
  43       18       39 1
  44       18       40 1
  45       20       41 1
  46       21       42 1
  47       22       43 1
  48       23       44 1
  49       24       45 1
  50       28       46 1
  51       29       47 1
  52       30       48 1
  53       32       49 1

@<TRIPOS>MOLECULE

  49   53
SMALL
USER_CHARGES
@<TRIPOS>ATOM
   1 O1           2.0670     2.4004    -1.0365 O.3          1    LIG  -1.0000
   2 C2           2.0428     3.3434    -0.0682 C.2          1    LIG   0.0000
   3 C3           2.8607     4.4456    -0.1054 C.2          1    LIG   0.0000
   4 C4           3.7873     4.6735    -1.1583 C.2          1    LIG   0.0000
   5 C5           4.5947     5.7806    -1.1723 C.2          1    LIG   0.0000
   6 C6           4.5131     6.7277    -0.1174 C.2          1    LIG   0.0000
   7 C7           3.6287     6.5331     0.9119 C.2          1    LIG   0.0000
   8 C8           2.7808     5.3929     0.9490 C.2          1    LIG   0.0000
   9 N9           1.9279     5.2005     1.9391 N.2          1    LIG   0.0000
  10 C10          1.1068     4.1025     1.9825 C.2          1    LIG   0.0000
  11 S11          0.0842     3.9194     3.2132 S.2          1    LIG   0.0000
  12 N12          1.1688     3.1750     0.9744 N.pl3        1    LIG   0.0000
  13 N13          0.3750     2.0825     0.9872 N.2          1    LIG   0.0000
  14 C14          1.0000     1.0000     1.0000 C.2          1    LIG   0.0000
  15 C15          2.4496     1.0000     1.0000 C.2          1    LIG   0.0000
  16 C16          3.2562     1.5612     1.9425 C.2          1    LIG   0.0000
  17 N17          4.5332     1.3216     1.5376 N.pl3        1    LIG   0.0000
  18 C18          5.7369     1.7504     2.2636 C.3          1    LIG   0.0000
  19 C19          6.1543     3.1307     1.7820 C.ar         1    LIG   0.0000
  20 C20          7.0368     3.2489     0.7133 C.ar         1    LIG   0.0000
  21 C21          7.4140     4.5155     0.2797 C.ar         1    LIG   0.0000
  22 C22          6.9094     5.6472     0.9131 C.ar         1    LIG   0.0000
  23 C23          6.0271     5.5196     1.9809 C.ar         1    LIG   0.0000
  24 C24          5.6453     4.2563     2.4214 C.ar         1    LIG   0.0000
  25 N25          4.5183     0.6510     0.4084 N.2          1    LIG   0.0000
  26 C26          3.2835     0.4221     0.0257 C.2          1    LIG   0.0000
  27 C27          2.8654    -0.2892    -1.1671 C.ar         1    LIG   0.0000
  28 C28          1.7806    -1.1585    -1.1095 C.ar         1    LIG   0.0000
  29 C29          1.3844    -1.8376    -2.2566 C.ar         1    LIG   0.0000
  30 C30          2.0803    -1.6353    -3.4447 C.ar         1    LIG   0.0000
  31 N31          3.1227    -0.7920    -3.4763 N.ar         1    LIG   0.0000
  32 C32          3.5228    -0.1271    -2.3821 C.ar         1    LIG   0.0000
  33 H            3.8517     4.0116    -1.9051 H            1    LIG   0.0000
  34 H            5.2397     5.9212    -1.9235 H            1    LIG   0.0000
  35 H            5.1008     7.5367    -0.1254 H            1    LIG   0.0000
  36 H            3.5793     7.2058     1.6502 H            1    LIG   0.0000
  37 H            0.5000     0.1340     1.0102 H            1    LIG   0.0000
  38 H            2.9685     2.0505     2.7658 H            1    LIG   0.0000
  39 H            6.4776     1.1002     2.0943 H            1    LIG   0.0000
  40 H            5.5407     1.7845     3.2435 H            1    LIG   0.0000
  41 H            7.3961     2.4322     0.2617 H            1    LIG   0.0000
  42 H            8.0480     4.6129    -0.4875 H            1    LIG   0.0000
  43 H            7.1824     6.5565     0.5991 H            1    LIG   0.0000
  44 H            5.6672     6.3362     2.4322 H            1    LIG   0.0000
  45 H            5.0119     4.1586     3.1890 H            1    LIG   0.0000
  46 H            1.2892    -1.2941    -0.2492 H            1    LIG   0.0000
  47 H            0.6065    -2.4654    -2.2280 H            1    LIG   0.0000
  48 H            1.8032    -2.1189    -4.2750 H            1    LIG   0.0000
  49 H            4.3046     0.4937    -2.4407 H            1    LIG   0.0000
@<TRIPOS>BOND
   1        1        2 1
   2        2        3 2
   3        3        4 1
   4        4        5 2
   5        5        6 1
   6        6        7 2
   7        7        8 1
   8        8        3 1
   9        8        9 2
  10        9       10 1
  11       10       11 2
  12       10       12 1
  13       12        2 1
  14       12       13 1
  15       13       14 2
  16       14       15 1
  17       15       16 2
  18       16       17 1
  19       17       18 1
  20       18       19 1
  21       19       20 ar
  22       20       21 ar
  23       21       22 ar
  24       22       23 ar
  25       23       24 ar
  26       24       19 ar
  27       17       25 1
  28       25       26 2
  29       26       15 1
  30       26       27 1
  31       27       28 ar
  32       28       29 ar
  33       29       30 ar
  34       30       31 ar
  35       31       32 ar
  36       32       27 ar
  37        4       33 1
  38        5       34 1
  39        6       35 1
  40        7       36 1
  41       14       37 1
  42       16       38 1
  43       18       39 1
  44       18       40 1
  45       20       41 1
  46       21       42 1
  47       22       43 1
  48       23       44 1
  49       24       45 1
  50       28       46 1
  51       29       47 1
  52       30       48 1
  53       32       49 1

@<TRIPOS>MOLECULE

  49   53
SMALL
USER_CHARGES
@<TRIPOS>ATOM
   1 O1           0.1771     3.8209     2.9868 O.3          1    LIG  -1.0000
   2 C2           1.0706     4.0742     2.0044 C.2          1    LIG   0.0000
   3 C3           1.8664     5.1930     2.0155 C.2          1    LIG   0.0000
   4 C4           1.8086     6.1608     3.0542 C.2          1    LIG   0.0000
   5 C5           2.6121     7.2708     3.0421 C.2          1    LIG   0.0000
   6 C6           3.5262     7.4693     1.9737 C.2          1    LIG   0.0000
   7 C7           3.6029     6.5524     0.9576 C.2          1    LIG   0.0000
   8 C8           2.7802     5.3933     0.9475 C.2          1    LIG   0.0000
   9 N9           2.8497     4.5076    -0.0299 N.2          1    LIG   0.0000
  10 C10          2.0587     3.3869    -0.0472 C.2          1    LIG   0.0000
  11 S11          2.1868     2.3389    -1.2634 S.2          1    LIG   0.0000
  12 N12          1.1688     3.1750     0.9744 N.pl3        1    LIG   0.0000
  13 N13          0.3750     2.0825     0.9872 N.2          1    LIG   0.0000
  14 C14          1.0000     1.0000     1.0000 C.2          1    LIG   0.0000
  15 C15          2.4496     1.0000     1.0000 C.2          1    LIG   0.0000
  16 C16          3.2562     1.5612     1.9425 C.2          1    LIG   0.0000
  17 N17          4.5332     1.3216     1.5376 N.pl3        1    LIG   0.0000
  18 C18          5.7369     1.7504     2.2636 C.3          1    LIG   0.0000
  19 C19          6.1543     3.1307     1.7820 C.ar         1    LIG   0.0000
  20 C20          7.0368     3.2489     0.7133 C.ar         1    LIG   0.0000
  21 C21          7.4140     4.5155     0.2797 C.ar         1    LIG   0.0000
  22 C22          6.9094     5.6472     0.9131 C.ar         1    LIG   0.0000
  23 C23          6.0271     5.5196     1.9809 C.ar         1    LIG   0.0000
  24 C24          5.6453     4.2563     2.4214 C.ar         1    LIG   0.0000
  25 N25          4.5183     0.6510     0.4084 N.2          1    LIG   0.0000
  26 C26          3.2835     0.4221     0.0257 C.2          1    LIG   0.0000
  27 C27          2.8654    -0.2892    -1.1671 C.ar         1    LIG   0.0000
  28 C28          1.7806    -1.1585    -1.1095 C.ar         1    LIG   0.0000
  29 C29          1.3844    -1.8376    -2.2566 C.ar         1    LIG   0.0000
  30 C30          2.0803    -1.6353    -3.4447 C.ar         1    LIG   0.0000
  31 N31          3.1227    -0.7920    -3.4763 N.ar         1    LIG   0.0000
  32 C32          3.5228    -0.1271    -2.3821 C.ar         1    LIG   0.0000
  33 H            1.1677     6.0291     3.8104 H            1    LIG   0.0000
  34 H            2.5550     7.9391     3.7838 H            1    LIG   0.0000
  35 H            4.1140     8.2782     1.9626 H            1    LIG   0.0000
  36 H            4.2496     6.7018     0.2096 H            1    LIG   0.0000
  37 H            0.5000     0.1340     1.0102 H            1    LIG   0.0000
  38 H            2.9685     2.0505     2.7658 H            1    LIG   0.0000
  39 H            6.4776     1.1002     2.0943 H            1    LIG   0.0000
  40 H            5.5407     1.7845     3.2435 H            1    LIG   0.0000
  41 H            7.3961     2.4322     0.2617 H            1    LIG   0.0000
  42 H            8.0480     4.6129    -0.4875 H            1    LIG   0.0000
  43 H            7.1824     6.5565     0.5991 H            1    LIG   0.0000
  44 H            5.6672     6.3362     2.4322 H            1    LIG   0.0000
  45 H            5.0119     4.1586     3.1890 H            1    LIG   0.0000
  46 H            1.2892    -1.2941    -0.2492 H            1    LIG   0.0000
  47 H            0.6065    -2.4654    -2.2280 H            1    LIG   0.0000
  48 H            1.8032    -2.1189    -4.2750 H            1    LIG   0.0000
  49 H            4.3046     0.4937    -2.4407 H            1    LIG   0.0000
@<TRIPOS>BOND
   1        1        2 1
   2        2        3 2
   3        3        4 1
   4        4        5 2
   5        5        6 1
   6        6        7 2
   7        7        8 1
   8        8        3 1
   9        8        9 2
  10        9       10 1
  11       10       11 2
  12       10       12 1
  13       12        2 1
  14       12       13 1
  15       13       14 2
  16       14       15 1
  17       15       16 2
  18       16       17 1
  19       17       18 1
  20       18       19 1
  21       19       20 ar
  22       20       21 ar
  23       21       22 ar
  24       22       23 ar
  25       23       24 ar
  26       24       19 ar
  27       17       25 1
  28       25       26 2
  29       26       15 1
  30       26       27 1
  31       27       28 ar
  32       28       29 ar
  33       29       30 ar
  34       30       31 ar
  35       31       32 ar
  36       32       27 ar
  37        4       33 1
  38        5       34 1
  39        6       35 1
  40        7       36 1
  41       14       37 1
  42       16       38 1
  43       18       39 1
  44       18       40 1
  45       20       41 1
  46       21       42 1
  47       22       43 1
  48       23       44 1
  49       24       45 1
  50       28       46 1
  51       29       47 1
  52       30       48 1
  53       32       49 1

@<TRIPOS>MOLECULE

  49   53
SMALL
USER_CHARGES
@<TRIPOS>ATOM
   1 O1           1.1234     3.0822    -1.3580 O.3          1    LIG  -1.0000
   2 C2           1.5567     3.6946    -0.2334 C.2          1    LIG   0.0000
   3 C3           2.3634     4.8049    -0.2743 C.2          1    LIG   0.0000
   4 C4           2.7993     5.3874    -1.4948 C.2          1    LIG   0.0000
   5 C5           3.6060     6.4950    -1.5099 C.2          1    LIG   0.0000
   6 C6           4.0223     7.0823    -0.2859 C.2          1    LIG   0.0000
   7 C7           3.6177     6.5411     0.9069 C.2          1    LIG   0.0000
   8 C8           2.7810     5.3927     0.9487 C.2          1    LIG   0.0000
   9 N9           2.3896     4.8669     2.0955 N.2          1    LIG   0.0000
  10 C10          1.5828     3.7586     2.1442 C.2          1    LIG   0.0000
  11 S11          1.1342     3.1607     3.5708 S.2          1    LIG   0.0000
  12 N12          1.1688     3.1750     0.9744 N.pl3        1    LIG   0.0000
  13 N13          0.3750     2.0825     0.9872 N.2          1    LIG   0.0000
  14 C14          1.0000     1.0000     1.0000 C.2          1    LIG   0.0000
  15 C15          2.4496     1.0000     1.0000 C.2          1    LIG   0.0000
  16 C16          3.2562     1.5612     1.9425 C.2          1    LIG   0.0000
  17 N17          4.5332     1.3216     1.5376 N.pl3        1    LIG   0.0000
  18 C18          5.7369     1.7504     2.2636 C.3          1    LIG   0.0000
  19 C19          6.1543     3.1307     1.7820 C.ar         1    LIG   0.0000
  20 C20          7.0368     3.2489     0.7133 C.ar         1    LIG   0.0000
  21 C21          7.4140     4.5155     0.2797 C.ar         1    LIG   0.0000
  22 C22          6.9094     5.6472     0.9131 C.ar         1    LIG   0.0000
  23 C23          6.0271     5.5196     1.9809 C.ar         1    LIG   0.0000
  24 C24          5.6453     4.2563     2.4214 C.ar         1    LIG   0.0000
  25 N25          4.5183     0.6510     0.4084 N.2          1    LIG   0.0000
  26 C26          3.2835     0.4221     0.0257 C.2          1    LIG   0.0000
  27 C27          2.8654    -0.2892    -1.1671 C.ar         1    LIG   0.0000
  28 C28          3.5514    -0.0984    -2.3624 C.ar         1    LIG   0.0000
  29 C29          3.1458    -0.7833    -3.5027 C.ar         1    LIG   0.0000
  30 C30          2.0593    -1.6499    -3.4287 C.ar         1    LIG   0.0000
  31 N31          1.4137    -1.8183    -2.2652 N.ar         1    LIG   0.0000
  32 C32          1.7869    -1.1675    -1.1532 C.ar         1    LIG   0.0000
  33 H            2.5112     4.9803    -2.3615 H            1    LIG   0.0000
  34 H            3.9008     6.8887    -2.3806 H            1    LIG   0.0000
  35 H            4.6106     7.8908    -0.2940 H            1    LIG   0.0000
  36 H            3.9168     6.9619     1.7633 H            1    LIG   0.0000
  37 H            0.5000     0.1340     1.0102 H            1    LIG   0.0000
  38 H            2.9685     2.0505     2.7658 H            1    LIG   0.0000
  39 H            6.4776     1.1002     2.0943 H            1    LIG   0.0000
  40 H            5.5407     1.7845     3.2435 H            1    LIG   0.0000
  41 H            7.3961     2.4322     0.2617 H            1    LIG   0.0000
  42 H            8.0480     4.6129    -0.4875 H            1    LIG   0.0000
  43 H            7.1824     6.5565     0.5991 H            1    LIG   0.0000
  44 H            5.6672     6.3362     2.4322 H            1    LIG   0.0000
  45 H            5.0119     4.1586     3.1890 H            1    LIG   0.0000
  46 H            4.3307     0.5270    -2.4013 H            1    LIG   0.0000
  47 H            3.6304    -0.6544    -4.3679 H            1    LIG   0.0000
  48 H            1.7599    -2.1471    -4.2430 H            1    LIG   0.0000
  49 H            1.2828    -1.3159    -0.3023 H            1    LIG   0.0000
@<TRIPOS>BOND
   1        1        2 1
   2        2        3 2
   3        3        4 1
   4        4        5 2
   5        5        6 1
   6        6        7 2
   7        7        8 1
   8        8        3 1
   9        8        9 2
  10        9       10 1
  11       10       11 2
  12       10       12 1
  13       12        2 1
  14       12       13 1
  15       13       14 2
  16       14       15 1
  17       15       16 2
  18       16       17 1
  19       17       18 1
  20       18       19 1
  21       19       20 ar
  22       20       21 ar
  23       21       22 ar
  24       22       23 ar
  25       23       24 ar
  26       24       19 ar
  27       17       25 1
  28       25       26 2
  29       26       15 1
  30       26       27 1
  31       27       28 ar
  32       28       29 ar
  33       29       30 ar
  34       30       31 ar
  35       31       32 ar
  36       32       27 ar
  37        4       33 1
  38        5       34 1
  39        6       35 1
  40        7       36 1
  41       14       37 1
  42       16       38 1
  43       18       39 1
  44       18       40 1
  45       20       41 1
  46       21       42 1
  47       22       43 1
  48       23       44 1
  49       24       45 1
  50       28       46 1
  51       29       47 1
  52       30       48 1
  53       32       49 1

