@<TRIPOS>MOLECULE
*****
 49 53 0 0 0
SMALL
USER_CHARGES

@<TRIPOS>ATOM
      1 O1          0.1794    3.7717   -1.0543 O.2     1  LIG1       -1.0000
      2 C2          1.0707    4.0496   -0.0766 C.2     1  LIG1        0.0000
      3 C3          1.8661    5.1681   -0.1138 C.2     1  LIG1        0.0000
      4 C4          1.8109    6.1093   -1.1768 C.2     1  LIG1        0.0000
      5 C5          2.6166    7.2176   -1.1924 C.2     1  LIG1        0.0000
      6 C6          3.5308    7.4412   -0.1291 C.2     1  LIG1        0.0000
      7 C7          3.6062    6.5495    0.9093 C.2     1  LIG1        0.0000
      8 C8          2.7811    5.3926    0.9483 C.2     1  LIG1        0.0000
      9 N9          2.8510    4.5299    1.9461 N.am    1  LIG1        0.0000
     10 C10         2.0587    3.4109    1.9907 C.2     1  LIG1        0.0000
     11 S11         2.1845    2.3936    3.2329 S.2     1  LIG1        0.0000
     12 N12         1.1688    3.1750    0.9744 N.am    1  LIG1        0.0000
     13 N13         0.3750    2.0825    0.9872 N.2     1  LIG1        0.0000
     14 C14         1.0000    1.0000    1.0000 C.2     1  LIG1        0.0000
     15 C15         2.4496    1.0000    1.0000 C.2     1  LIG1        0.0000
     16 C16         3.2562    1.5356    0.0428 C.2     1  LIG1        0.0000
     17 N17         4.5332    1.3048    0.4527 N.pl3   1  LIG1        0.0000
     18 C18         5.7369    1.7191   -0.2817 C.3     1  LIG1        0.0000
     19 C19         6.1496    3.1119    0.1665 C.3     1  LIG1        0.0000
     20 C20         5.6429    4.2259   -0.4948 C.3     1  LIG1        0.0000
     21 C21         6.0263    5.4965   -0.0786 C.3     1  LIG1        0.0000
     22 C22         6.9073    5.6434    0.9885 C.3     1  LIG1        0.0000
     23 C23         7.4089    4.5238    1.6441 C.3     1  LIG1        0.0000
     24 C24         7.0310    3.2492    1.2338 C.3     1  LIG1        0.0000
     25 N25         4.5183    0.6621    1.5981 N.2     1  LIG1        0.0000
     26 C26         3.2835    0.4452    1.9876 C.2     1  LIG1        0.0000
     27 C27         2.8654   -0.2322    3.2000 C.3     1  LIG1        0.0000
     28 C28         1.7803   -1.1024    3.1671 C.3     1  LIG1        0.0000
     29 C29         1.3843   -1.7491    4.3328 C.3     1  LIG1        0.0000
     30 C30         2.0814   -1.5148    5.5144 C.3     1  LIG1        0.0000
     31 N31         3.1247   -0.6720    5.5218 N.pl3   1  LIG1        0.0000
     32 C32         3.5237   -0.0369    4.4097 C.3     1  LIG1        0.0000
     33 H           1.1703    5.9596   -1.9299 H       1  LIG1        0.0000
     34 H           2.5610    7.8672   -1.9507 H       1  LIG1        0.0000
     35 H           4.1196    8.2494   -0.1378 H       1  LIG1        0.0000
     36 H           4.2536    6.7159    1.6531 H       1  LIG1        0.0000
     37 H           0.5000    0.1340    1.0102 H       1  LIG1        0.0000
     38 H           2.9685    2.0040   -0.7926 H       1  LIG1        0.0000
     39 H           5.5423    1.7285   -1.2625 H       1  LIG1        0.0000
     40 H           6.4791    1.0754   -0.0953 H       1  LIG1        0.0000
     41 H           5.0099    4.1144   -1.2609 H       1  LIG1        0.0000
     42 H           5.6687    6.3047   -0.5465 H       1  LIG1        0.0000
     43 H           7.1811    6.5582    1.2854 H       1  LIG1        0.0000
     44 H           8.0414    4.6350    2.4107 H       1  LIG1        0.0000
     45 H           7.3890    2.4408    1.7010 H       1  LIG1        0.0000
     46 H           1.2887   -1.2619    2.3110 H       1  LIG1        0.0000
     47 H           0.6057   -2.3765    4.3222 H       1  LIG1        0.0000
     48 H           1.8045   -1.9750    6.3579 H       1  LIG1        0.0000
     49 H           4.3053    0.5855    4.4508 H       1  LIG1        0.0000
@<TRIPOS>UNITY_ATOM_ATTR
1 1
charge -1
@<TRIPOS>BOND
     1     1     2    1
     2     2     3    2
     3     3     4    1
     4     4     5    2
     5     5     6    1
     6     6     7    2
     7     7     8    1
     8     8     3    1
     9     8     9    2
    10     9    10    1
    11    10    11    2
    12    10    12    1
    13    12     2    1
    14    12    13    1
    15    13    14    2
    16    14    15    1
    17    15    16    2
    18    16    17    1
    19    17    18    1
    20    18    19    1
    21    19    20   ar
    22    20    21   ar
    23    21    22   ar
    24    22    23   ar
    25    23    24   ar
    26    24    19   ar
    27    17    25    1
    28    25    26    2
    29    26    15    1
    30    26    27    1
    31    27    28   ar
    32    28    29   ar
    33    29    30   ar
    34    30    31   ar
    35    31    32   ar
    36    32    27   ar
    37     4    33    1
    38     5    34    1
    39     6    35    1
    40     7    36    1
    41    14    37    1
    42    16    38    1
    43    18    39    1
    44    18    40    1
    45    20    41    1
    46    21    42    1
    47    22    43    1
    48    23    44    1
    49    24    45    1
    50    28    46    1
    51    29    47    1
    52    30    48    1
    53    32    49    1
