@<TRIPOS>MOLECULE
*****
 49 53 0 0 0
SMALL
USER_CHARGES

@<TRIPOS>ATOM
      1 O1          1.1208    3.1391    3.3082 O.2     1  LIG1       -1.0000
      2 C2          1.5566    3.7230    2.1696 C.2     1  LIG1        0.0000
      3 C3          2.3637    4.8336    2.1843 C.2     1  LIG1        0.0000
      4 C4          2.7966    5.4469    3.3908 C.2     1  LIG1        0.0000
      5 C5          3.6008    6.5564    3.3797 C.2     1  LIG1        0.0000
      6 C6          4.0170    7.1147    2.1422 C.2     1  LIG1        0.0000
      7 C7          3.6139    6.5445    0.9626 C.2     1  LIG1        0.0000
      8 C8          2.7800    5.3935    0.9478 C.2     1  LIG1        0.0000
      9 N9          2.3880    4.8411   -0.1863 N.am    1  LIG1        0.0000
     10 C10         1.5828    3.7308   -0.2089 C.2     1  LIG1        0.0000
     11 S11         1.1369    3.0976   -1.6210 S.2     1  LIG1        0.0000
     12 N12         1.1688    3.1750    0.9744 N.am    1  LIG1        0.0000
     13 N13         0.3750    2.0825    0.9872 N.2     1  LIG1        0.0000
     14 C14         1.0000    1.0000    1.0000 C.2     1  LIG1        0.0000
     15 C15         2.4496    1.0000    1.0000 C.2     1  LIG1        0.0000
     16 C16         3.2562    1.5356    0.0428 C.2     1  LIG1        0.0000
     17 N17         4.5332    1.3048    0.4527 N.pl3   1  LIG1        0.0000
     18 C18         5.7369    1.7191   -0.2817 C.3     1  LIG1        0.0000
     19 C19         6.1543    0.6119   -1.2362 C.3     1  LIG1        0.0000
     20 C20         7.0368   -0.3727   -0.8042 C.3     1  LIG1        0.0000
     21 C21         7.4140   -1.3815   -1.6843 C.3     1  LIG1        0.0000
     22 C22         6.9094   -1.3989   -2.9811 C.3     1  LIG1        0.0000
     23 C23         6.0271   -0.4103   -3.4045 C.3     1  LIG1        0.0000
     24 C24         5.6453    0.6028   -2.5307 C.3     1  LIG1        0.0000
     25 N25         4.5183    0.6621    1.5981 N.2     1  LIG1        0.0000
     26 C26         3.2835    0.4452    1.9876 C.2     1  LIG1        0.0000
     27 C27         2.8654   -0.2322    3.2000 C.3     1  LIG1        0.0000
     28 C28         1.7806    0.2524    3.9241 C.3     1  LIG1        0.0000
     29 C29         1.3844   -0.4015    5.0857 C.3     1  LIG1        0.0000
     30 C30         2.0803   -1.5316    5.5046 C.3     1  LIG1        0.0000
     31 N31         3.1227   -1.9806    4.7900 N.pl3   1  LIG1        0.0000
     32 C32         3.5228   -1.3654    3.6671 C.3     1  LIG1        0.0000
     33 H           2.5082    5.0605    4.2668 H       1  LIG1        0.0000
     34 H           3.8939    6.9717    4.2409 H       1  LIG1        0.0000
     35 H           4.6042    7.9241    2.1313 H       1  LIG1        0.0000
     36 H           3.9122    6.9456    0.0964 H       1  LIG1        0.0000
     37 H           0.5000    0.1340    1.0102 H       1  LIG1        0.0000
     38 H           2.9685    2.0040   -0.7926 H       1  LIG1        0.0000
     39 H           6.4776    1.8976    0.3660 H       1  LIG1        0.0000
     40 H           5.5407    2.5507   -0.8012 H       1  LIG1        0.0000
     41 H           7.3961   -0.3555    0.1288 H       1  LIG1        0.0000
     42 H           8.0480   -2.0946   -1.3851 H       1  LIG1        0.0000
     43 H           7.1824   -2.1255   -3.6116 H       1  LIG1        0.0000
     44 H           5.6672   -0.4277   -4.3374 H       1  LIG1        0.0000
     45 H           5.0119    1.3164   -2.8300 H       1  LIG1        0.0000
     46 H           1.2892    1.0652    3.6113 H       1  LIG1        0.0000
     47 H           0.6065   -0.0628    5.6151 H       1  LIG1        0.0000
     48 H           1.8032   -2.0088    6.3385 H       1  LIG1        0.0000
     49 H           4.3046   -1.7266    3.1588 H       1  LIG1        0.0000
@<TRIPOS>UNITY_ATOM_ATTR
1 1
charge -1
@<TRIPOS>BOND
     1     1     2    1
     2     2     3    2
     3     3     4    1
     4     4     5    2
     5     5     6    1
     6     6     7    2
     7     7     8    1
     8     8     3    1
     9     8     9    2
    10     9    10    1
    11    10    11    2
    12    10    12    1
    13    12     2    1
    14    12    13    1
    15    13    14    2
    16    14    15    1
    17    15    16    2
    18    16    17    1
    19    17    18    1
    20    18    19    1
    21    19    20   ar
    22    20    21   ar
    23    21    22   ar
    24    22    23   ar
    25    23    24   ar
    26    24    19   ar
    27    17    25    1
    28    25    26    2
    29    26    15    1
    30    26    27    1
    31    27    28   ar
    32    28    29   ar
    33    29    30   ar
    34    30    31   ar
    35    31    32   ar
    36    32    27   ar
    37     4    33    1
    38     5    34    1
    39     6    35    1
    40     7    36    1
    41    14    37    1
    42    16    38    1
    43    18    39    1
    44    18    40    1
    45    20    41    1
    46    21    42    1
    47    22    43    1
    48    23    44    1
    49    24    45    1
    50    28    46    1
    51    29    47    1
    52    30    48    1
    53    32    49    1
