@<TRIPOS>MOLECULE
*****
 49 53 0 0 0
SMALL
USER_CHARGES

@<TRIPOS>ATOM
      1 O1          2.0670    2.4004   -1.0365 O.2     1  LIG1       -1.0000
      2 C2          2.0428    3.3434   -0.0682 C.2     1  LIG1        0.0000
      3 C3          2.8607    4.4456   -0.1054 C.2     1  LIG1        0.0000
      4 C4          3.7873    4.6735   -1.1583 C.2     1  LIG1        0.0000
      5 C5          4.5947    5.7806   -1.1723 C.2     1  LIG1        0.0000
      6 C6          4.5131    6.7277   -0.1174 C.2     1  LIG1        0.0000
      7 C7          3.6287    6.5331    0.9119 C.2     1  LIG1        0.0000
      8 C8          2.7808    5.3929    0.9490 C.2     1  LIG1        0.0000
      9 N9          1.9279    5.2005    1.9391 N.am    1  LIG1        0.0000
     10 C10         1.1068    4.1025    1.9825 C.2     1  LIG1        0.0000
     11 S11         0.0842    3.9194    3.2132 S.2     1  LIG1        0.0000
     12 N12         1.1688    3.1750    0.9744 N.am    1  LIG1        0.0000
     13 N13         0.3750    2.0825    0.9872 N.2     1  LIG1        0.0000
     14 C14         1.0000    1.0000    1.0000 C.2     1  LIG1        0.0000
     15 C15         2.4496    1.0000    1.0000 C.2     1  LIG1        0.0000
     16 C16         3.2562    1.5612    1.9425 C.2     1  LIG1        0.0000
     17 N17         4.5332    1.3216    1.5376 N.pl3   1  LIG1        0.0000
     18 C18         5.7369    1.7504    2.2636 C.3     1  LIG1        0.0000
     19 C19         6.1543    3.1307    1.7820 C.3     1  LIG1        0.0000
     20 C20         7.0368    3.2489    0.7133 C.3     1  LIG1        0.0000
     21 C21         7.4140    4.5155    0.2797 C.3     1  LIG1        0.0000
     22 C22         6.9094    5.6472    0.9131 C.3     1  LIG1        0.0000
     23 C23         6.0271    5.5196    1.9809 C.3     1  LIG1        0.0000
     24 C24         5.6453    4.2563    2.4214 C.3     1  LIG1        0.0000
     25 N25         4.5183    0.6510    0.4084 N.2     1  LIG1        0.0000
     26 C26         3.2835    0.4221    0.0257 C.2     1  LIG1        0.0000
     27 C27         2.8654   -0.2892   -1.1671 C.3     1  LIG1        0.0000
     28 C28         1.7806   -1.1585   -1.1095 C.3     1  LIG1        0.0000
     29 C29         1.3844   -1.8376   -2.2566 C.3     1  LIG1        0.0000
     30 C30         2.0803   -1.6353   -3.4447 C.3     1  LIG1        0.0000
     31 N31         3.1227   -0.7920   -3.4763 N.pl3   1  LIG1        0.0000
     32 C32         3.5228   -0.1271   -2.3821 C.3     1  LIG1        0.0000
     33 H           3.8517    4.0116   -1.9051 H       1  LIG1        0.0000
     34 H           5.2397    5.9212   -1.9235 H       1  LIG1        0.0000
     35 H           5.1008    7.5367   -0.1254 H       1  LIG1        0.0000
     36 H           3.5793    7.2058    1.6502 H       1  LIG1        0.0000
     37 H           0.5000    0.1340    1.0102 H       1  LIG1        0.0000
     38 H           2.9685    2.0505    2.7658 H       1  LIG1        0.0000
     39 H           6.4776    1.1002    2.0943 H       1  LIG1        0.0000
     40 H           5.5407    1.7845    3.2435 H       1  LIG1        0.0000
     41 H           7.3961    2.4322    0.2617 H       1  LIG1        0.0000
     42 H           8.0480    4.6129   -0.4875 H       1  LIG1        0.0000
     43 H           7.1824    6.5565    0.5991 H       1  LIG1        0.0000
     44 H           5.6672    6.3362    2.4322 H       1  LIG1        0.0000
     45 H           5.0119    4.1586    3.1890 H       1  LIG1        0.0000
     46 H           1.2892   -1.2941   -0.2492 H       1  LIG1        0.0000
     47 H           0.6065   -2.4654   -2.2280 H       1  LIG1        0.0000
     48 H           1.8032   -2.1189   -4.2750 H       1  LIG1        0.0000
     49 H           4.3046    0.4937   -2.4407 H       1  LIG1        0.0000
@<TRIPOS>UNITY_ATOM_ATTR
1 1
charge -1
@<TRIPOS>BOND
     1     1     2    1
     2     2     3    2
     3     3     4    1
     4     4     5    2
     5     5     6    1
     6     6     7    2
     7     7     8    1
     8     8     3    1
     9     8     9    2
    10     9    10    1
    11    10    11    2
    12    10    12    1
    13    12     2    1
    14    12    13    1
    15    13    14    2
    16    14    15    1
    17    15    16    2
    18    16    17    1
    19    17    18    1
    20    18    19    1
    21    19    20   ar
    22    20    21   ar
    23    21    22   ar
    24    22    23   ar
    25    23    24   ar
    26    24    19   ar
    27    17    25    1
    28    25    26    2
    29    26    15    1
    30    26    27    1
    31    27    28   ar
    32    28    29   ar
    33    29    30   ar
    34    30    31   ar
    35    31    32   ar
    36    32    27   ar
    37     4    33    1
    38     5    34    1
    39     6    35    1
    40     7    36    1
    41    14    37    1
    42    16    38    1
    43    18    39    1
    44    18    40    1
    45    20    41    1
    46    21    42    1
    47    22    43    1
    48    23    44    1
    49    24    45    1
    50    28    46    1
    51    29    47    1
    52    30    48    1
    53    32    49    1
