@<TRIPOS>MOLECULE

  42   45
SMALL
USER_CHARGES
@<TRIPOS>ATOM
   1 O1           2.1151     2.1151    -0.7571 O.2          1    LIG   0.0000
   2 C2           1.2925     1.2925    -0.4626 C.2          1    LIG   0.0000
   3 C3           1.0000     1.0000     1.0000 C.3          1    LIG   0.0000
   4 S4           2.0450     2.0450     2.0450 S.3          1    LIG   0.0000
   5 C5           1.5709     1.5709     3.6508 C.2          1    LIG   0.0000
   6 N6           0.6410     0.6410     3.7823 N.2          1    LIG   0.0000
   7 C7           0.2174     0.2175     5.0156 C.ar         1    LIG   0.0000
   8 C8          -0.7632    -0.7630     5.1358 C.ar         1    LIG   0.0000
   9 C9          -1.1792    -1.1801     6.3969 C.ar         1    LIG   0.0000
  10 Cl10        -2.4308    -2.4308     6.5820 Cl           1    LIG   0.0000
  11 C11         -0.6354    -0.6384     7.5549 C.ar         1    LIG   0.0000
  12 C12          0.3422     0.3401     7.4195 C.ar         1    LIG   0.0000
  13 C13          0.7704     0.7699     6.1674 C.ar         1    LIG   0.0000
  14 C14          1.7709     1.7701     6.0203 C.2          1    LIG   0.0000
  15 O15          2.3062     2.3051     6.9815 O.2          1    LIG   0.0000
  16 N16          2.1459     2.1452     4.7561 N.pl3        1    LIG   0.0000
  17 C17          3.1295     3.1296     4.6016 C.ar         1    LIG   0.0000
  18 C18          4.4678     2.7572     4.5258 C.ar         1    LIG   0.0000
  19 C19          5.4520     3.7283     4.3732 C.ar         1    LIG   0.0000
  20 C20          5.0791     5.0665     4.2986 C.ar         1    LIG   0.0000
  21 Cl21         6.3329     6.3145     4.1031 Cl           1    LIG   0.0000
  22 C22          3.7433     5.4479     4.3743 C.ar         1    LIG   0.0000
  23 C23          2.7660     4.4699     4.5274 C.ar         1    LIG   0.0000
  24 N24          0.6171     0.6171    -1.4447 N.am         1    LIG   0.0000
  25 C25          0.8995     0.8995    -2.8566 C.3          1    LIG   0.0000
  26 C26          0.7493    -0.3110    -3.7229 C.3          1    LIG   0.0000
  27 C27         -0.3138     0.7482    -3.7258 C.3          1    LIG   0.0000
  28 H            0.0377     1.1925     1.1925 H            1    LIG   0.0000
  29 H            1.1925     0.0377     1.1925 H            1    LIG   0.0000
  30 H           -1.1688    -1.1677     4.3162 H            1    LIG   0.0000
  31 H           -0.9381    -0.9432     8.4580 H            1    LIG   0.0000
  32 H            0.7467     0.7441     8.2399 H            1    LIG   0.0000
  33 H            4.7222     1.7917     4.5811 H            1    LIG   0.0000
  34 H            6.4158     3.4677     4.3177 H            1    LIG   0.0000
  35 H            3.4888     6.4134     4.3194 H            1    LIG   0.0000
  36 H            1.8022     4.7306     4.5840 H            1    LIG   0.0000
  37 H           -0.0684    -0.0684    -1.1993 H            1    LIG   0.0000
  38 H            1.5869     1.5869    -3.0906 H            1    LIG   0.0000
  39 H            0.5656    -1.2024    -3.3086 H            1    LIG   0.0000
  40 H            1.3386    -0.4299    -4.5220 H            1    LIG   0.0000
  41 H           -0.4325     1.3359    -4.5261 H            1    LIG   0.0000
  42 H           -1.2055     0.5634    -3.3127 H            1    LIG   0.0000
@<TRIPOS>BOND
   1        1        2 2
   2        2        3 1
   3        3        4 1
   4        4        5 1
   5        5        6 2
   6        6        7 1
   7        7        8 ar
   8        8        9 ar
   9        9       10 1
  10        9       11 ar
  11       11       12 ar
  12       12       13 ar
  13       13        7 ar
  14       13       14 1
  15       14       15 2
  16       14       16 1
  17       16        5 1
  18       16       17 1
  19       17       18 ar
  20       18       19 ar
  21       19       20 ar
  22       20       21 1
  23       20       22 ar
  24       22       23 ar
  25       23       17 ar
  26        2       24 am
  27       24       25 1
  28       25       26 1
  29       26       27 1
  30       27       25 1
  31        3       28 1
  32        3       29 1
  33        8       30 1
  34       11       31 1
  35       12       32 1
  36       18       33 1
  37       19       34 1
  38       22       35 1
  39       23       36 1
  40       24       37 1
  41       25       38 1
  42       26       39 1
  43       26       40 1
  44       27       41 1
  45       27       42 1

@<TRIPOS>MOLECULE

  42   45
SMALL
USER_CHARGES
@<TRIPOS>ATOM
   1 O1           0.7009     0.7009    -1.3228 O.2          1    LIG   0.0000
   2 C2           1.2925     1.2925    -0.4626 C.2          1    LIG   0.0000
   3 C3           1.0000     1.0000     1.0000 C.3          1    LIG   0.0000
   4 S4           2.0450     2.0450     2.0450 S.3          1    LIG   0.0000
   5 C5           1.5709     1.5709     3.6508 C.2          1    LIG   0.0000
   6 N6           0.6410     0.6410     3.7823 N.2          1    LIG   0.0000
   7 C7           0.2174     0.2175     5.0156 C.ar         1    LIG   0.0000
   8 C8          -0.7632    -0.7630     5.1358 C.ar         1    LIG   0.0000
   9 C9          -1.1792    -1.1801     6.3969 C.ar         1    LIG   0.0000
  10 Cl10        -2.4308    -2.4308     6.5820 Cl           1    LIG   0.0000
  11 C11         -0.6354    -0.6384     7.5549 C.ar         1    LIG   0.0000
  12 C12          0.3422     0.3401     7.4195 C.ar         1    LIG   0.0000
  13 C13          0.7704     0.7699     6.1674 C.ar         1    LIG   0.0000
  14 C14          1.7709     1.7701     6.0203 C.2          1    LIG   0.0000
  15 O15          2.3062     2.3051     6.9815 O.2          1    LIG   0.0000
  16 N16          2.1459     2.1452     4.7561 N.pl3        1    LIG   0.0000
  17 C17          3.1295     3.1296     4.6016 C.ar         1    LIG   0.0000
  18 C18          4.4678     2.7572     4.5258 C.ar         1    LIG   0.0000
  19 C19          5.4520     3.7283     4.3732 C.ar         1    LIG   0.0000
  20 C20          5.0791     5.0665     4.2986 C.ar         1    LIG   0.0000
  21 Cl21         6.3329     6.3145     4.1031 Cl           1    LIG   0.0000
  22 C22          3.7433     5.4479     4.3743 C.ar         1    LIG   0.0000
  23 C23          2.7660     4.4699     4.5274 C.ar         1    LIG   0.0000
  24 N24          2.2316     2.2316    -0.7989 N.am         1    LIG   0.0000
  25 C25          2.5140     2.5140    -2.2108 C.3          1    LIG   0.0000
  26 C26          2.8842     3.9445    -2.4448 C.3          1    LIG   0.0000
  27 C27          3.9481     2.8861    -2.4458 C.3          1    LIG   0.0000
  28 H            0.0377     1.1925     1.1925 H            1    LIG   0.0000
  29 H            1.1925     0.0377     1.1925 H            1    LIG   0.0000
  30 H           -1.1688    -1.1677     4.3162 H            1    LIG   0.0000
  31 H           -0.9381    -0.9432     8.4580 H            1    LIG   0.0000
  32 H            0.7467     0.7441     8.2399 H            1    LIG   0.0000
  33 H            4.7222     1.7917     4.5811 H            1    LIG   0.0000
  34 H            6.4158     3.4677     4.3177 H            1    LIG   0.0000
  35 H            3.4888     6.4134     4.3194 H            1    LIG   0.0000
  36 H            1.8022     4.7306     4.5840 H            1    LIG   0.0000
  37 H            2.7247     2.7247    -0.0820 H            1    LIG   0.0000
  38 H            2.0150     2.0150    -2.9193 H            1    LIG   0.0000
  39 H            2.8349     4.6029    -1.6937 H            1    LIG   0.0000
  40 H            2.6258     4.3943    -3.2997 H            1    LIG   0.0000
  41 H            4.3980     2.6295    -3.3013 H            1    LIG   0.0000
  42 H            4.6071     2.8382    -1.6952 H            1    LIG   0.0000
@<TRIPOS>BOND
   1        1        2 2
   2        2        3 1
   3        3        4 1
   4        4        5 1
   5        5        6 2
   6        6        7 1
   7        7        8 ar
   8        8        9 ar
   9        9       10 1
  10        9       11 ar
  11       11       12 ar
  12       12       13 ar
  13       13        7 ar
  14       13       14 1
  15       14       15 2
  16       14       16 1
  17       16        5 1
  18       16       17 1
  19       17       18 ar
  20       18       19 ar
  21       19       20 ar
  22       20       21 1
  23       20       22 ar
  24       22       23 ar
  25       23       17 ar
  26        2       24 am
  27       24       25 1
  28       25       26 1
  29       26       27 1
  30       27       25 1
  31        3       28 1
  32        3       29 1
  33        8       30 1
  34       11       31 1
  35       12       32 1
  36       18       33 1
  37       19       34 1
  38       22       35 1
  39       23       36 1
  40       24       37 1
  41       25       38 1
  42       26       39 1
  43       26       40 1
  44       27       41 1
  45       27       42 1

@<TRIPOS>MOLECULE

  42   45
SMALL
USER_CHARGES
@<TRIPOS>ATOM
   1 O1           0.6731     2.1428    -1.0400 O.2          1    LIG   0.0000
   2 C2           1.2925     1.2925    -0.4626 C.2          1    LIG   0.0000
   3 C3           1.0000     1.0000     1.0000 C.3          1    LIG   0.0000
   4 S4           2.0450     2.0450     2.0450 S.3          1    LIG   0.0000
   5 C5           2.9575     0.8776     2.9575 C.2          1    LIG   0.0000
   6 N6           2.7352    -0.4061     2.7352 N.2          1    LIG   0.0000
   7 C7           3.4161    -1.3819     3.4163 C.ar         1    LIG   0.0000
   8 C8           3.1694    -2.7294     3.1696 C.ar         1    LIG   0.0000
   9 C9           3.8718    -3.7052     3.8709 C.ar         1    LIG   0.0000
  10 Cl10         3.5777    -5.4351     3.5777 Cl           1    LIG   0.0000
  11 C11          4.8258    -3.3675     4.8228 C.ar         1    LIG   0.0000
  12 C12          5.0611    -2.0183     5.0590 C.ar         1    LIG   0.0000
  13 C13          4.3686    -1.0289     4.3681 C.ar         1    LIG   0.0000
  14 C14          4.6041     0.3539     4.6033 C.2          1    LIG   0.0000
  15 O15          5.4234     0.7471     5.4223 O.2          1    LIG   0.0000
  16 N16          3.8863     1.2753     3.8856 N.pl3        1    LIG   0.0000
  17 C17          4.1109     2.6388     4.1109 C.ar         1    LIG   0.0000
  18 C18          5.0767     3.3081     3.3661 C.ar         1    LIG   0.0000
  19 C19          5.3073     4.6625     3.5837 C.ar         1    LIG   0.0000
  20 C20          4.5630     5.3309     4.5503 C.ar         1    LIG   0.0000
  21 Cl21         4.8525     7.0638     4.8341 Cl           1    LIG   0.0000
  22 C22          3.5958     4.6693     5.3004 C.ar         1    LIG   0.0000
  23 C23          3.3722     3.3148     5.0762 C.ar         1    LIG   0.0000
  24 N24          2.2633     0.5854    -1.1218 N.am         1    LIG   0.0000
  25 C25          2.5457     0.8678    -2.5337 C.3          1    LIG   0.0000
  26 C26          3.9872     0.6666    -2.8798 C.3          1    LIG   0.0000
  27 C27          2.9689    -0.3565    -3.2902 C.3          1    LIG   0.0000
  28 H            0.0377     1.1925     1.1925 H            1    LIG   0.0000
  29 H            1.1925     0.0377     1.1925 H            1    LIG   0.0000
  30 H            2.4875    -2.9965     2.4886 H            1    LIG   0.0000
  31 H            5.3277    -4.0735     5.3226 H            1    LIG   0.0000
  32 H            5.7431    -1.7527     5.7405 H            1    LIG   0.0000
  33 H            5.6050     2.8156     2.6744 H            1    LIG   0.0000
  34 H            5.9998     5.1498     3.0517 H            1    LIG   0.0000
  35 H            3.0677     5.1616     5.9923 H            1    LIG   0.0000
  36 H            2.6806     2.8272     5.6090 H            1    LIG   0.0000
  37 H            2.7795    -0.1232    -0.6406 H            1    LIG   0.0000
  38 H            2.0234     1.5785    -3.0049 H            1    LIG   0.0000
  39 H            4.6487     0.4530    -2.1609 H            1    LIG   0.0000
  40 H            4.4208     1.2453    -3.5705 H            1    LIG   0.0000
  41 H            2.7230    -0.4592    -4.2540 H            1    LIG   0.0000
  42 H            2.9509    -1.2515    -2.8444 H            1    LIG   0.0000
@<TRIPOS>BOND
   1        1        2 2
   2        2        3 1
   3        3        4 1
   4        4        5 1
   5        5        6 2
   6        6        7 1
   7        7        8 ar
   8        8        9 ar
   9        9       10 1
  10        9       11 ar
  11       11       12 ar
  12       12       13 ar
  13       13        7 ar
  14       13       14 1
  15       14       15 2
  16       14       16 1
  17       16        5 1
  18       16       17 1
  19       17       18 ar
  20       18       19 ar
  21       19       20 ar
  22       20       21 1
  23       20       22 ar
  24       22       23 ar
  25       23       17 ar
  26        2       24 am
  27       24       25 1
  28       25       26 1
  29       26       27 1
  30       27       25 1
  31        3       28 1
  32        3       29 1
  33        8       30 1
  34       11       31 1
  35       12       32 1
  36       18       33 1
  37       19       34 1
  38       22       35 1
  39       23       36 1
  40       24       37 1
  41       25       38 1
  42       26       39 1
  43       26       40 1
  44       27       41 1
  45       27       42 1

@<TRIPOS>MOLECULE

  42   45
SMALL
USER_CHARGES
@<TRIPOS>ATOM
   1 O1           0.6731     2.1428    -1.0400 O.2          1    LIG   0.0000
   2 C2           1.2925     1.2925    -0.4626 C.2          1    LIG   0.0000
   3 C3           1.0000     1.0000     1.0000 C.3          1    LIG   0.0000
   4 S4           2.0450     2.0450     2.0450 S.3          1    LIG   0.0000
   5 C5           2.9575     0.8776     2.9575 C.2          1    LIG   0.0000
   6 N6           4.1091     0.4562     2.4646 N.2          1    LIG   0.0000
   7 C7           4.8816    -0.4622     3.1275 C.ar         1    LIG   0.0000
   8 C8           6.0920    -0.8952     2.5938 C.ar         1    LIG   0.0000
   9 C9           6.8624    -1.8275     3.2826 C.ar         1    LIG   0.0000
  10 Cl10         8.4133    -2.4001     2.6253 Cl           1    LIG   0.0000
  11 C11          6.4520    -2.3450     4.5049 C.ar         1    LIG   0.0000
  12 C12          5.2410    -1.9040     5.0253 C.ar         1    LIG   0.0000
  13 C13          4.4573    -0.9729     4.3510 C.ar         1    LIG   0.0000
  14 C14          3.2174    -0.5159     4.8771 C.2          1    LIG   0.0000
  15 O15          2.7739    -0.9152     5.9451 O.2          1    LIG   0.0000
  16 N16          2.4969     0.4037     4.1598 N.pl3        1    LIG   0.0000
  17 C17          1.2748     0.8588     4.6695 C.ar         1    LIG   0.0000
  18 C18          1.2489     1.9792     5.4937 C.ar         1    LIG   0.0000
  19 C19          0.0395     2.4380     6.0054 C.ar         1    LIG   0.0000
  20 C20         -1.1335     1.7634     5.6825 C.ar         1    LIG   0.0000
  21 Cl21        -2.6846     2.3448     6.3334 Cl           1    LIG   0.0000
  22 C22         -1.1168     0.6416     4.8598 C.ar         1    LIG   0.0000
  23 C23          0.0973     0.1898     4.3529 C.ar         1    LIG   0.0000
  24 N24          2.2633     0.5854    -1.1218 N.am         1    LIG   0.0000
  25 C25          2.5457     0.8678    -2.5337 C.3          1    LIG   0.0000
  26 C26          3.9872     0.6666    -2.8798 C.3          1    LIG   0.0000
  27 C27          2.9689    -0.3565    -3.2902 C.3          1    LIG   0.0000
  28 H            0.0377     1.1925     1.1925 H            1    LIG   0.0000
  29 H            1.1925     0.0377     1.1925 H            1    LIG   0.0000
  30 H            6.4081    -0.5364     1.7155 H            1    LIG   0.0000
  31 H            7.0106    -3.0140     4.9952 H            1    LIG   0.0000
  32 H            4.9260    -2.2639     5.9035 H            1    LIG   0.0000
  33 H            2.0995     2.4547     5.7183 H            1    LIG   0.0000
  34 H            0.0136     3.2430     6.5982 H            1    LIG   0.0000
  35 H           -1.9673     0.1658     4.6355 H            1    LIG   0.0000
  36 H            0.1234    -0.6158     3.7611 H            1    LIG   0.0000
  37 H            2.7795    -0.1232    -0.6406 H            1    LIG   0.0000
  38 H            2.0234     1.5785    -3.0049 H            1    LIG   0.0000
  39 H            4.6487     0.4530    -2.1609 H            1    LIG   0.0000
  40 H            4.4208     1.2453    -3.5705 H            1    LIG   0.0000
  41 H            2.7230    -0.4592    -4.2540 H            1    LIG   0.0000
  42 H            2.9509    -1.2515    -2.8444 H            1    LIG   0.0000
@<TRIPOS>BOND
   1        1        2 2
   2        2        3 1
   3        3        4 1
   4        4        5 1
   5        5        6 2
   6        6        7 1
   7        7        8 ar
   8        8        9 ar
   9        9       10 1
  10        9       11 ar
  11       11       12 ar
  12       12       13 ar
  13       13        7 ar
  14       13       14 1
  15       14       15 2
  16       14       16 1
  17       16        5 1
  18       16       17 1
  19       17       18 ar
  20       18       19 ar
  21       19       20 ar
  22       20       21 1
  23       20       22 ar
  24       22       23 ar
  25       23       17 ar
  26        2       24 am
  27       24       25 1
  28       25       26 1
  29       26       27 1
  30       27       25 1
  31        3       28 1
  32        3       29 1
  33        8       30 1
  34       11       31 1
  35       12       32 1
  36       18       33 1
  37       19       34 1
  38       22       35 1
  39       23       36 1
  40       24       37 1
  41       25       38 1
  42       26       39 1
  43       26       40 1
  44       27       41 1
  45       27       42 1

@<TRIPOS>MOLECULE

  42   45
SMALL
USER_CHARGES
@<TRIPOS>ATOM
   1 O1           2.1151     2.1151    -0.7571 O.2          1    LIG   0.0000
   2 C2           1.2925     1.2925    -0.4626 C.2          1    LIG   0.0000
   3 C3           1.0000     1.0000     1.0000 C.3          1    LIG   0.0000
   4 S4           2.0450     2.0450     2.0450 S.3          1    LIG   0.0000
   5 C5           2.9575     0.8776     2.9575 C.2          1    LIG   0.0000
   6 N6           2.4646     0.4562     4.1091 N.2          1    LIG   0.0000
   7 C7           3.1276    -0.4621     4.8817 C.ar         1    LIG   0.0000
   8 C8           2.5939    -0.8950     6.0921 C.ar         1    LIG   0.0000
   9 C9           3.2820    -1.8286     6.8617 C.ar         1    LIG   0.0000
  10 Cl10         2.6253    -2.4001     8.4133 Cl           1    LIG   0.0000
  11 C11          4.5029    -2.3482     6.4499 C.ar         1    LIG   0.0000
  12 C12          5.0238    -1.9062     5.2396 C.ar         1    LIG   0.0000
  13 C13          4.3506    -0.9734     4.4570 C.ar         1    LIG   0.0000
  14 C14          4.8765    -0.5168     3.2168 C.2          1    LIG   0.0000
  15 O15          5.9443    -0.9164     2.7732 O.2          1    LIG   0.0000
  16 N16          4.1594     0.4030     2.4964 N.pl3        1    LIG   0.0000
  17 C17          4.6695     0.8588     1.2748 C.ar         1    LIG   0.0000
  18 C18          4.3461     0.1853     0.1012 C.ar         1    LIG   0.0000
  19 C19          4.8490     0.6304    -1.1169 C.ar         1    LIG   0.0000
  20 C20          5.6740     1.7502    -1.1420 C.ar         1    LIG   0.0000
  21 Cl21         6.3211     2.3255    -2.6969 Cl           1    LIG   0.0000
  22 C22          6.0033     2.4293     0.0268 C.ar         1    LIG   0.0000
  23 C23          5.4961     1.9768     1.2404 C.ar         1    LIG   0.0000
  24 N24          0.6171     0.6171    -1.4447 N.am         1    LIG   0.0000
  25 C25          0.8995     0.8995    -2.8566 C.3          1    LIG   0.0000
  26 C26          0.7493    -0.3110    -3.7229 C.3          1    LIG   0.0000
  27 C27         -0.3138     0.7482    -3.7258 C.3          1    LIG   0.0000
  28 H            0.0377     1.1925     1.1925 H            1    LIG   0.0000
  29 H            1.1925     0.0377     1.1925 H            1    LIG   0.0000
  30 H            1.7162    -0.5353     6.4088 H            1    LIG   0.0000
  31 H            4.9918    -3.0194     7.0072 H            1    LIG   0.0000
  32 H            5.9018    -2.2666     4.9243 H            1    LIG   0.0000
  33 H            3.7522    -0.6186     0.1334 H            1    LIG   0.0000
  34 H            4.6203     0.1512    -1.9643 H            1    LIG   0.0000
  35 H            6.5975     3.2329    -0.0052 H            1    LIG   0.0000
  36 H            5.7257     2.4552     2.0880 H            1    LIG   0.0000
  37 H           -0.0684    -0.0684    -1.1993 H            1    LIG   0.0000
  38 H            1.5869     1.5869    -3.0906 H            1    LIG   0.0000
  39 H            0.5656    -1.2024    -3.3086 H            1    LIG   0.0000
  40 H            1.3386    -0.4299    -4.5220 H            1    LIG   0.0000
  41 H           -0.4325     1.3359    -4.5261 H            1    LIG   0.0000
  42 H           -1.2055     0.5634    -3.3127 H            1    LIG   0.0000
@<TRIPOS>BOND
   1        1        2 2
   2        2        3 1
   3        3        4 1
   4        4        5 1
   5        5        6 2
   6        6        7 1
   7        7        8 ar
   8        8        9 ar
   9        9       10 1
  10        9       11 ar
  11       11       12 ar
  12       12       13 ar
  13       13        7 ar
  14       13       14 1
  15       14       15 2
  16       14       16 1
  17       16        5 1
  18       16       17 1
  19       17       18 ar
  20       18       19 ar
  21       19       20 ar
  22       20       21 1
  23       20       22 ar
  24       22       23 ar
  25       23       17 ar
  26        2       24 am
  27       24       25 1
  28       25       26 1
  29       26       27 1
  30       27       25 1
  31        3       28 1
  32        3       29 1
  33        8       30 1
  34       11       31 1
  35       12       32 1
  36       18       33 1
  37       19       34 1
  38       22       35 1
  39       23       36 1
  40       24       37 1
  41       25       38 1
  42       26       39 1
  43       26       40 1
  44       27       41 1
  45       27       42 1

@<TRIPOS>MOLECULE

  42   45
SMALL
USER_CHARGES
@<TRIPOS>ATOM
   1 O1           2.1151     2.1151    -0.7571 O.2          1    LIG   0.0000
   2 C2           1.2925     1.2925    -0.4626 C.2          1    LIG   0.0000
   3 C3           1.0000     1.0000     1.0000 C.3          1    LIG   0.0000
   4 S4           2.0450     2.0450     2.0450 S.3          1    LIG   0.0000
   5 C5           0.8776     2.9575     2.9575 C.2          1    LIG   0.0000
   6 N6           0.4562     2.4646     4.1091 N.2          1    LIG   0.0000
   7 C7          -0.4622     3.1275     4.8816 C.ar         1    LIG   0.0000
   8 C8          -0.8952     2.5938     6.0920 C.ar         1    LIG   0.0000
   9 C9          -1.8275     3.2826     6.8624 C.ar         1    LIG   0.0000
  10 Cl10        -2.4001     2.6253     8.4133 Cl           1    LIG   0.0000
  11 C11         -2.3450     4.5049     6.4520 C.ar         1    LIG   0.0000
  12 C12         -1.9040     5.0253     5.2410 C.ar         1    LIG   0.0000
  13 C13         -0.9729     4.3510     4.4573 C.ar         1    LIG   0.0000
  14 C14         -0.5159     4.8771     3.2174 C.2          1    LIG   0.0000
  15 O15         -0.9152     5.9451     2.7739 O.2          1    LIG   0.0000
  16 N16          0.4037     4.1598     2.4969 N.pl3        1    LIG   0.0000
  17 C17          0.8588     4.6695     1.2748 C.ar         1    LIG   0.0000
  18 C18          1.9792     5.4937     1.2489 C.ar         1    LIG   0.0000
  19 C19          2.4380     6.0054     0.0395 C.ar         1    LIG   0.0000
  20 C20          1.7634     5.6825    -1.1335 C.ar         1    LIG   0.0000
  21 Cl21         2.3448     6.3334    -2.6846 Cl           1    LIG   0.0000
  22 C22          0.6416     4.8598    -1.1168 C.ar         1    LIG   0.0000
  23 C23          0.1898     4.3529     0.0973 C.ar         1    LIG   0.0000
  24 N24          0.6171     0.6171    -1.4447 N.am         1    LIG   0.0000
  25 C25          0.8995     0.8995    -2.8566 C.3          1    LIG   0.0000
  26 C26          0.7493    -0.3110    -3.7229 C.3          1    LIG   0.0000
  27 C27         -0.3138     0.7482    -3.7258 C.3          1    LIG   0.0000
  28 H            0.0377     1.1925     1.1925 H            1    LIG   0.0000
  29 H            1.1925     0.0377     1.1925 H            1    LIG   0.0000
  30 H           -0.5364     1.7155     6.4081 H            1    LIG   0.0000
  31 H           -3.0140     4.9952     7.0106 H            1    LIG   0.0000
  32 H           -2.2639     5.9035     4.9260 H            1    LIG   0.0000
  33 H            2.4547     5.7183     2.0995 H            1    LIG   0.0000
  34 H            3.2430     6.5982     0.0136 H            1    LIG   0.0000
  35 H            0.1658     4.6355    -1.9673 H            1    LIG   0.0000
  36 H           -0.6158     3.7611     0.1234 H            1    LIG   0.0000
  37 H           -0.0684    -0.0684    -1.1993 H            1    LIG   0.0000
  38 H            1.5869     1.5869    -3.0906 H            1    LIG   0.0000
  39 H            0.5656    -1.2024    -3.3086 H            1    LIG   0.0000
  40 H            1.3386    -0.4299    -4.5220 H            1    LIG   0.0000
  41 H           -0.4325     1.3359    -4.5261 H            1    LIG   0.0000
  42 H           -1.2055     0.5634    -3.3127 H            1    LIG   0.0000
@<TRIPOS>BOND
   1        1        2 2
   2        2        3 1
   3        3        4 1
   4        4        5 1
   5        5        6 2
   6        6        7 1
   7        7        8 ar
   8        8        9 ar
   9        9       10 1
  10        9       11 ar
  11       11       12 ar
  12       12       13 ar
  13       13        7 ar
  14       13       14 1
  15       14       15 2
  16       14       16 1
  17       16        5 1
  18       16       17 1
  19       17       18 ar
  20       18       19 ar
  21       19       20 ar
  22       20       21 1
  23       20       22 ar
  24       22       23 ar
  25       23       17 ar
  26        2       24 am
  27       24       25 1
  28       25       26 1
  29       26       27 1
  30       27       25 1
  31        3       28 1
  32        3       29 1
  33        8       30 1
  34       11       31 1
  35       12       32 1
  36       18       33 1
  37       19       34 1
  38       22       35 1
  39       23       36 1
  40       24       37 1
  41       25       38 1
  42       26       39 1
  43       26       40 1
  44       27       41 1
  45       27       42 1

@<TRIPOS>MOLECULE

  42   45
SMALL
USER_CHARGES
@<TRIPOS>ATOM
   1 O1           0.7009     0.7009    -1.3228 O.2          1    LIG   0.0000
   2 C2           1.2925     1.2925    -0.4626 C.2          1    LIG   0.0000
   3 C3           1.0000     1.0000     1.0000 C.3          1    LIG   0.0000
   4 S4           2.0450     2.0450     2.0450 S.3          1    LIG   0.0000
   5 C5           0.8776     2.9575     2.9575 C.2          1    LIG   0.0000
   6 N6           0.4562     4.1091     2.4646 N.2          1    LIG   0.0000
   7 C7          -0.4621     4.8817     3.1276 C.ar         1    LIG   0.0000
   8 C8          -0.8950     6.0921     2.5939 C.ar         1    LIG   0.0000
   9 C9          -1.8286     6.8617     3.2820 C.ar         1    LIG   0.0000
  10 Cl10        -2.4001     8.4133     2.6253 Cl           1    LIG   0.0000
  11 C11         -2.3482     6.4499     4.5029 C.ar         1    LIG   0.0000
  12 C12         -1.9062     5.2396     5.0238 C.ar         1    LIG   0.0000
  13 C13         -0.9734     4.4570     4.3506 C.ar         1    LIG   0.0000
  14 C14         -0.5168     3.2168     4.8765 C.2          1    LIG   0.0000
  15 O15         -0.9164     2.7732     5.9443 O.2          1    LIG   0.0000
  16 N16          0.4030     2.4964     4.1594 N.pl3        1    LIG   0.0000
  17 C17          0.8588     1.2748     4.6695 C.ar         1    LIG   0.0000
  18 C18          0.1853     0.1012     4.3461 C.ar         1    LIG   0.0000
  19 C19          0.6304    -1.1169     4.8490 C.ar         1    LIG   0.0000
  20 C20          1.7502    -1.1420     5.6740 C.ar         1    LIG   0.0000
  21 Cl21         2.3255    -2.6969     6.3211 Cl           1    LIG   0.0000
  22 C22          2.4293     0.0268     6.0033 C.ar         1    LIG   0.0000
  23 C23          1.9768     1.2404     5.4961 C.ar         1    LIG   0.0000
  24 N24          2.2316     2.2316    -0.7989 N.am         1    LIG   0.0000
  25 C25          2.5140     2.5140    -2.2108 C.3          1    LIG   0.0000
  26 C26          2.8842     3.9445    -2.4448 C.3          1    LIG   0.0000
  27 C27          3.9481     2.8861    -2.4458 C.3          1    LIG   0.0000
  28 H            0.0377     1.1925     1.1925 H            1    LIG   0.0000
  29 H            1.1925     0.0377     1.1925 H            1    LIG   0.0000
  30 H           -0.5353     6.4088     1.7162 H            1    LIG   0.0000
  31 H           -3.0194     7.0072     4.9918 H            1    LIG   0.0000
  32 H           -2.2666     4.9243     5.9018 H            1    LIG   0.0000
  33 H           -0.6186     0.1334     3.7522 H            1    LIG   0.0000
  34 H            0.1512    -1.9643     4.6203 H            1    LIG   0.0000
  35 H            3.2329    -0.0052     6.5975 H            1    LIG   0.0000
  36 H            2.4552     2.0880     5.7257 H            1    LIG   0.0000
  37 H            2.7247     2.7247    -0.0820 H            1    LIG   0.0000
  38 H            2.0150     2.0150    -2.9193 H            1    LIG   0.0000
  39 H            2.8349     4.6029    -1.6937 H            1    LIG   0.0000
  40 H            2.6258     4.3943    -3.2997 H            1    LIG   0.0000
  41 H            4.3980     2.6295    -3.3013 H            1    LIG   0.0000
  42 H            4.6071     2.8382    -1.6952 H            1    LIG   0.0000
@<TRIPOS>BOND
   1        1        2 2
   2        2        3 1
   3        3        4 1
   4        4        5 1
   5        5        6 2
   6        6        7 1
   7        7        8 ar
   8        8        9 ar
   9        9       10 1
  10        9       11 ar
  11       11       12 ar
  12       12       13 ar
  13       13        7 ar
  14       13       14 1
  15       14       15 2
  16       14       16 1
  17       16        5 1
  18       16       17 1
  19       17       18 ar
  20       18       19 ar
  21       19       20 ar
  22       20       21 1
  23       20       22 ar
  24       22       23 ar
  25       23       17 ar
  26        2       24 am
  27       24       25 1
  28       25       26 1
  29       26       27 1
  30       27       25 1
  31        3       28 1
  32        3       29 1
  33        8       30 1
  34       11       31 1
  35       12       32 1
  36       18       33 1
  37       19       34 1
  38       22       35 1
  39       23       36 1
  40       24       37 1
  41       25       38 1
  42       26       39 1
  43       26       40 1
  44       27       41 1
  45       27       42 1

@<TRIPOS>MOLECULE

  42   45
SMALL
USER_CHARGES
@<TRIPOS>ATOM
   1 O1           2.1151     2.1151    -0.7571 O.2          1    LIG   0.0000
   2 C2           1.2925     1.2925    -0.4626 C.2          1    LIG   0.0000
   3 C3           1.0000     1.0000     1.0000 C.3          1    LIG   0.0000
   4 S4           2.0450     2.0450     2.0450 S.3          1    LIG   0.0000
   5 C5           3.6297     1.3729     1.7899 C.2          1    LIG   0.0000
   6 N6           3.7505     0.3420     0.9718 N.2          1    LIG   0.0000
   7 C7           4.9670    -0.2394     0.7228 C.ar         1    LIG   0.0000
   8 C8           5.0760    -1.3247    -0.1418 C.ar         1    LIG   0.0000
   9 C9           6.3202    -1.9004    -0.3822 C.ar         1    LIG   0.0000
  10 Cl10         6.4907    -3.2888    -1.4816 Cl           1    LIG   0.0000
  11 C11          7.4723    -1.4154     0.2242 C.ar         1    LIG   0.0000
  12 C12          7.3480    -0.3317     1.0855 C.ar         1    LIG   0.0000
  13 C13          6.1128     0.2566     1.3383 C.ar         1    LIG   0.0000
  14 C14          5.9773     1.3663     2.2176 C.2          1    LIG   0.0000
  15 O15          6.9342     1.8611     2.7975 O.2          1    LIG   0.0000
  16 N16          4.7298     1.8973     2.4201 N.pl3        1    LIG   0.0000
  17 C17          4.5867     2.9894     3.2846 C.ar         1    LIG   0.0000
  18 C18          4.6881     4.2822     2.7806 C.ar         1    LIG   0.0000
  19 C19          4.5482     5.3731     3.6322 C.ar         1    LIG   0.0000
  20 C20          4.3077     5.1521     4.9844 C.ar         1    LIG   0.0000
  21 Cl21         4.1274     6.5432     6.0798 Cl           1    LIG   0.0000
  22 C22          4.2057     3.8627     5.4971 C.ar         1    LIG   0.0000
  23 C23          4.3473     2.7778     4.6382 C.ar         1    LIG   0.0000
  24 N24          0.6171     0.6171    -1.4447 N.am         1    LIG   0.0000
  25 C25          0.8995     0.8995    -2.8566 C.3          1    LIG   0.0000
  26 C26          0.7493    -0.3110    -3.7229 C.3          1    LIG   0.0000
  27 C27         -0.3138     0.7482    -3.7258 C.3          1    LIG   0.0000
  28 H            0.0377     1.1925     1.1925 H            1    LIG   0.0000
  29 H            1.1925     0.0377     1.1925 H            1    LIG   0.0000
  30 H            4.2606    -1.6909    -0.5901 H            1    LIG   0.0000
  31 H            8.3633    -1.8330     0.0465 H            1    LIG   0.0000
  32 H            8.1643     0.0332     1.5334 H            1    LIG   0.0000
  33 H            4.8615     4.4270     1.8065 H            1    LIG   0.0000
  34 H            4.6196     6.3051     3.2766 H            1    LIG   0.0000
  35 H            4.0326     3.7177     6.4712 H            1    LIG   0.0000
  36 H            4.2770     1.8458     4.9939 H            1    LIG   0.0000
  37 H           -0.0684    -0.0684    -1.1993 H            1    LIG   0.0000
  38 H            1.5869     1.5869    -3.0906 H            1    LIG   0.0000
  39 H            0.5656    -1.2024    -3.3086 H            1    LIG   0.0000
  40 H            1.3386    -0.4299    -4.5220 H            1    LIG   0.0000
  41 H           -0.4325     1.3359    -4.5261 H            1    LIG   0.0000
  42 H           -1.2055     0.5634    -3.3127 H            1    LIG   0.0000
@<TRIPOS>BOND
   1        1        2 2
   2        2        3 1
   3        3        4 1
   4        4        5 1
   5        5        6 2
   6        6        7 1
   7        7        8 ar
   8        8        9 ar
   9        9       10 1
  10        9       11 ar
  11       11       12 ar
  12       12       13 ar
  13       13        7 ar
  14       13       14 1
  15       14       15 2
  16       14       16 1
  17       16        5 1
  18       16       17 1
  19       17       18 ar
  20       18       19 ar
  21       19       20 ar
  22       20       21 1
  23       20       22 ar
  24       22       23 ar
  25       23       17 ar
  26        2       24 am
  27       24       25 1
  28       25       26 1
  29       26       27 1
  30       27       25 1
  31        3       28 1
  32        3       29 1
  33        8       30 1
  34       11       31 1
  35       12       32 1
  36       18       33 1
  37       19       34 1
  38       22       35 1
  39       23       36 1
  40       24       37 1
  41       25       38 1
  42       26       39 1
  43       26       40 1
  44       27       41 1
  45       27       42 1

@<TRIPOS>MOLECULE

  42   45
SMALL
USER_CHARGES
@<TRIPOS>ATOM
   1 O1           0.6731     2.1428    -1.0400 O.2          1    LIG   0.0000
   2 C2           1.2925     1.2925    -0.4626 C.2          1    LIG   0.0000
   3 C3           1.0000     1.0000     1.0000 C.3          1    LIG   0.0000
   4 S4           2.0450     2.0450     2.0450 S.3          1    LIG   0.0000
   5 C5           3.6297     1.3729     1.7899 C.2          1    LIG   0.0000
   6 N6           3.7505     0.3420     0.9718 N.2          1    LIG   0.0000
   7 C7           4.9670    -0.2394     0.7228 C.ar         1    LIG   0.0000
   8 C8           5.0760    -1.3247    -0.1418 C.ar         1    LIG   0.0000
   9 C9           6.3202    -1.9004    -0.3822 C.ar         1    LIG   0.0000
  10 Cl10         6.4907    -3.2888    -1.4816 Cl           1    LIG   0.0000
  11 C11          7.4723    -1.4154     0.2242 C.ar         1    LIG   0.0000
  12 C12          7.3480    -0.3317     1.0855 C.ar         1    LIG   0.0000
  13 C13          6.1128     0.2566     1.3383 C.ar         1    LIG   0.0000
  14 C14          5.9773     1.3663     2.2176 C.2          1    LIG   0.0000
  15 O15          6.9342     1.8611     2.7975 O.2          1    LIG   0.0000
  16 N16          4.7298     1.8973     2.4201 N.pl3        1    LIG   0.0000
  17 C17          4.5867     2.9894     3.2846 C.ar         1    LIG   0.0000
  18 C18          4.6881     4.2822     2.7806 C.ar         1    LIG   0.0000
  19 C19          4.5482     5.3731     3.6322 C.ar         1    LIG   0.0000
  20 C20          4.3077     5.1521     4.9844 C.ar         1    LIG   0.0000
  21 Cl21         4.1274     6.5432     6.0798 Cl           1    LIG   0.0000
  22 C22          4.2057     3.8627     5.4971 C.ar         1    LIG   0.0000
  23 C23          4.3473     2.7778     4.6382 C.ar         1    LIG   0.0000
  24 N24          2.2633     0.5854    -1.1218 N.am         1    LIG   0.0000
  25 C25          2.5457     0.8678    -2.5337 C.3          1    LIG   0.0000
  26 C26          3.9872     0.6666    -2.8798 C.3          1    LIG   0.0000
  27 C27          2.9689    -0.3565    -3.2902 C.3          1    LIG   0.0000
  28 H            0.0377     1.1925     1.1925 H            1    LIG   0.0000
  29 H            1.1925     0.0377     1.1925 H            1    LIG   0.0000
  30 H            4.2606    -1.6909    -0.5901 H            1    LIG   0.0000
  31 H            8.3633    -1.8330     0.0465 H            1    LIG   0.0000
  32 H            8.1643     0.0332     1.5334 H            1    LIG   0.0000
  33 H            4.8615     4.4270     1.8065 H            1    LIG   0.0000
  34 H            4.6196     6.3051     3.2766 H            1    LIG   0.0000
  35 H            4.0326     3.7177     6.4712 H            1    LIG   0.0000
  36 H            4.2770     1.8458     4.9939 H            1    LIG   0.0000
  37 H            2.7795    -0.1232    -0.6406 H            1    LIG   0.0000
  38 H            2.0234     1.5785    -3.0049 H            1    LIG   0.0000
  39 H            4.6487     0.4530    -2.1609 H            1    LIG   0.0000
  40 H            4.4208     1.2453    -3.5705 H            1    LIG   0.0000
  41 H            2.7230    -0.4592    -4.2540 H            1    LIG   0.0000
  42 H            2.9509    -1.2515    -2.8444 H            1    LIG   0.0000
@<TRIPOS>BOND
   1        1        2 2
   2        2        3 1
   3        3        4 1
   4        4        5 1
   5        5        6 2
   6        6        7 1
   7        7        8 ar
   8        8        9 ar
   9        9       10 1
  10        9       11 ar
  11       11       12 ar
  12       12       13 ar
  13       13        7 ar
  14       13       14 1
  15       14       15 2
  16       14       16 1
  17       16        5 1
  18       16       17 1
  19       17       18 ar
  20       18       19 ar
  21       19       20 ar
  22       20       21 1
  23       20       22 ar
  24       22       23 ar
  25       23       17 ar
  26        2       24 am
  27       24       25 1
  28       25       26 1
  29       26       27 1
  30       27       25 1
  31        3       28 1
  32        3       29 1
  33        8       30 1
  34       11       31 1
  35       12       32 1
  36       18       33 1
  37       19       34 1
  38       22       35 1
  39       23       36 1
  40       24       37 1
  41       25       38 1
  42       26       39 1
  43       26       40 1
  44       27       41 1
  45       27       42 1

@<TRIPOS>MOLECULE

  42   45
SMALL
USER_CHARGES
@<TRIPOS>ATOM
   1 O1           0.6731     2.1428    -1.0400 O.2          1    LIG   0.0000
   2 C2           1.2925     1.2925    -0.4626 C.2          1    LIG   0.0000
   3 C3           1.0000     1.0000     1.0000 C.3          1    LIG   0.0000
   4 S4           2.0450     2.0450     2.0450 S.3          1    LIG   0.0000
   5 C5           3.6297     1.3729     1.7899 C.2          1    LIG   0.0000
   6 N6           4.3666     1.8576     0.8057 N.2          1    LIG   0.0000
   7 C7           5.6241     1.3773     0.5455 C.ar         1    LIG   0.0000
   8 C8           6.3866     1.8994    -0.4954 C.ar         1    LIG   0.0000
   9 C9           7.6615     1.3989    -0.7430 C.ar         1    LIG   0.0000
  10 Cl10         8.6591     2.0457    -2.0664 Cl           1    LIG   0.0000
  11 C11          8.2022     0.3792     0.0305 C.ar         1    LIG   0.0000
  12 C12          7.4292    -0.1328     1.0658 C.ar         1    LIG   0.0000
  13 C13          6.1527     0.3546     1.3281 C.ar         1    LIG   0.0000
  14 C14          5.3557    -0.1633     2.3861 C.2          1    LIG   0.0000
  15 O15          5.7464    -1.0616     3.1190 O.2          1    LIG   0.0000
  16 N16          4.1069     0.3647     2.5888 N.pl3        1    LIG   0.0000
  17 C17          3.3149    -0.1394     3.6276 C.ar         1    LIG   0.0000
  18 C18          3.3957     0.4334     4.8928 C.ar         1    LIG   0.0000
  19 C19          2.6132    -0.0614     5.9311 C.ar         1    LIG   0.0000
  20 C20          1.7563    -1.1294     5.6855 C.ar         1    LIG   0.0000
  21 Cl21         0.7521    -1.7676     7.0091 Cl           1    LIG   0.0000
  22 C22          1.6698    -1.7088     4.4236 C.ar         1    LIG   0.0000
  23 C23          2.4563    -1.2077     3.3914 C.ar         1    LIG   0.0000
  24 N24          2.2633     0.5854    -1.1218 N.am         1    LIG   0.0000
  25 C25          2.5457     0.8678    -2.5337 C.3          1    LIG   0.0000
  26 C26          3.9872     0.6666    -2.8798 C.3          1    LIG   0.0000
  27 C27          2.9689    -0.3565    -3.2902 C.3          1    LIG   0.0000
  28 H            0.0377     1.1925     1.1925 H            1    LIG   0.0000
  29 H            1.1925     0.0377     1.1925 H            1    LIG   0.0000
  30 H            6.0184     2.6341    -1.0653 H            1    LIG   0.0000
  31 H            9.1193     0.0247    -0.1521 H            1    LIG   0.0000
  32 H            7.7985    -0.8676     1.6347 H            1    LIG   0.0000
  33 H            4.0161     1.2005     5.0559 H            1    LIG   0.0000
  34 H            2.6661     0.3457     6.8429 H            1    LIG   0.0000
  35 H            1.0497    -2.4762     4.2605 H            1    LIG   0.0000
  36 H            2.4043    -1.6155     2.4798 H            1    LIG   0.0000
  37 H            2.7795    -0.1232    -0.6406 H            1    LIG   0.0000
  38 H            2.0234     1.5785    -3.0049 H            1    LIG   0.0000
  39 H            4.6487     0.4530    -2.1609 H            1    LIG   0.0000
  40 H            4.4208     1.2453    -3.5705 H            1    LIG   0.0000
  41 H            2.7230    -0.4592    -4.2540 H            1    LIG   0.0000
  42 H            2.9509    -1.2515    -2.8444 H            1    LIG   0.0000
@<TRIPOS>BOND
   1        1        2 2
   2        2        3 1
   3        3        4 1
   4        4        5 1
   5        5        6 2
   6        6        7 1
   7        7        8 ar
   8        8        9 ar
   9        9       10 1
  10        9       11 ar
  11       11       12 ar
  12       12       13 ar
  13       13        7 ar
  14       13       14 1
  15       14       15 2
  16       14       16 1
  17       16        5 1
  18       16       17 1
  19       17       18 ar
  20       18       19 ar
  21       19       20 ar
  22       20       21 1
  23       20       22 ar
  24       22       23 ar
  25       23       17 ar
  26        2       24 am
  27       24       25 1
  28       25       26 1
  29       26       27 1
  30       27       25 1
  31        3       28 1
  32        3       29 1
  33        8       30 1
  34       11       31 1
  35       12       32 1
  36       18       33 1
  37       19       34 1
  38       22       35 1
  39       23       36 1
  40       24       37 1
  41       25       38 1
  42       26       39 1
  43       26       40 1
  44       27       41 1
  45       27       42 1

@<TRIPOS>MOLECULE

  42   45
SMALL
USER_CHARGES
@<TRIPOS>ATOM
   1 O1           2.1428     0.6731    -1.0400 O.2          1    LIG   0.0000
   2 C2           1.2925     1.2925    -0.4626 C.2          1    LIG   0.0000
   3 C3           1.0000     1.0000     1.0000 C.3          1    LIG   0.0000
   4 S4           2.0450     2.0450     2.0450 S.3          1    LIG   0.0000
   5 C5           3.4650     2.2642     1.0633 C.2          1    LIG   0.0000
   6 N6           3.5028     3.2927     0.2343 N.2          1    LIG   0.0000
   7 C7           4.5882     3.5284    -0.5696 C.ar         1    LIG   0.0000
   8 C8           4.6112     4.6166    -1.4372 C.ar         1    LIG   0.0000
   9 C9           5.7228     4.8393    -2.2446 C.ar         1    LIG   0.0000
  10 Cl10         5.7809     6.2212    -3.3636 Cl           1    LIG   0.0000
  11 C11          6.8255     3.9948    -2.2083 C.ar         1    LIG   0.0000
  12 C12          6.7880     2.9120    -1.3378 C.ar         1    LIG   0.0000
  13 C13          5.6855     2.6732    -0.5233 C.ar         1    LIG   0.0000
  14 C14          5.6398     1.5680     0.3707 C.2          1    LIG   0.0000
  15 O15          6.5621     0.7704     0.4714 O.2          1    LIG   0.0000
  16 N16          4.5220     1.3934     1.1450 N.pl3        1    LIG   0.0000
  17 C17          4.4678     0.3077     2.0275 C.ar         1    LIG   0.0000
  18 C18          4.9364     0.4565     3.3290 C.ar         1    LIG   0.0000
  19 C19          4.8873    -0.6168     4.2124 C.ar         1    LIG   0.0000
  20 C20          4.3668    -1.8311     3.7767 C.ar         1    LIG   0.0000
  21 Cl21         4.3007    -3.2087     4.9016 Cl           1    LIG   0.0000
  22 C22          3.8969    -1.9890     2.4767 C.ar         1    LIG   0.0000
  23 C23          3.9503    -0.9103     1.6001 C.ar         1    LIG   0.0000
  24 N24          0.5854     2.2633    -1.1218 N.am         1    LIG   0.0000
  25 C25          0.8678     2.5457    -2.5337 C.3          1    LIG   0.0000
  26 C26         -0.3537     2.9669    -3.2879 C.3          1    LIG   0.0000
  27 C27          0.6654     3.9908    -2.8814 C.3          1    LIG   0.0000
  28 H            0.0377     1.1925     1.1925 H            1    LIG   0.0000
  29 H            1.1925     0.0377     1.1925 H            1    LIG   0.0000
  30 H            3.8292     5.2384    -1.4803 H            1    LIG   0.0000
  31 H            7.6214     4.1609    -2.7904 H            1    LIG   0.0000
  32 H            7.5706     2.2909    -1.2959 H            1    LIG   0.0000
  33 H            5.3084     1.3349     3.6292 H            1    LIG   0.0000
  34 H            5.2221    -0.5167     5.1494 H            1    LIG   0.0000
  35 H            3.5252    -2.8674     2.1762 H            1    LIG   0.0000
  36 H            3.6166    -1.0107     0.6628 H            1    LIG   0.0000
  37 H           -0.1232     2.7795    -0.6406 H            1    LIG   0.0000
  38 H            1.5785     2.0234    -3.0049 H            1    LIG   0.0000
  39 H           -1.2483     2.9475    -2.8414 H            1    LIG   0.0000
  40 H           -0.4565     2.7191    -4.2512 H            1    LIG   0.0000
  41 H            1.2425     4.4247    -3.5734 H            1    LIG   0.0000
  42 H            0.4507     4.6530    -2.1635 H            1    LIG   0.0000
@<TRIPOS>BOND
   1        1        2 2
   2        2        3 1
   3        3        4 1
   4        4        5 1
   5        5        6 2
   6        6        7 1
   7        7        8 ar
   8        8        9 ar
   9        9       10 1
  10        9       11 ar
  11       11       12 ar
  12       12       13 ar
  13       13        7 ar
  14       13       14 1
  15       14       15 2
  16       14       16 1
  17       16        5 1
  18       16       17 1
  19       17       18 ar
  20       18       19 ar
  21       19       20 ar
  22       20       21 1
  23       20       22 ar
  24       22       23 ar
  25       23       17 ar
  26        2       24 am
  27       24       25 1
  28       25       26 1
  29       26       27 1
  30       27       25 1
  31        3       28 1
  32        3       29 1
  33        8       30 1
  34       11       31 1
  35       12       32 1
  36       18       33 1
  37       19       34 1
  38       22       35 1
  39       23       36 1
  40       24       37 1
  41       25       38 1
  42       26       39 1
  43       26       40 1
  44       27       41 1
  45       27       42 1

@<TRIPOS>MOLECULE

  42   45
SMALL
USER_CHARGES
@<TRIPOS>ATOM
   1 O1           2.1428     0.6731    -1.0400 O.2          1    LIG   0.0000
   2 C2           1.2925     1.2925    -0.4626 C.2          1    LIG   0.0000
   3 C3           1.0000     1.0000     1.0000 C.3          1    LIG   0.0000
   4 S4           2.0450     2.0450     2.0450 S.3          1    LIG   0.0000
   5 C5           3.1555     0.8986     2.7384 C.2          1    LIG   0.0000
   6 N6           4.2836     0.6497     2.0965 N.2          1    LIG   0.0000
   7 C7           5.2055    -0.2411     2.5825 C.ar         1    LIG   0.0000
   8 C8           6.3887    -0.4914     1.8933 C.ar         1    LIG   0.0000
   9 C9           7.3126    -1.3988     2.4036 C.ar         1    LIG   0.0000
  10 Cl10         8.8330    -1.7396     1.5450 Cl           1    LIG   0.0000
  11 C11          7.0843    -2.0706     3.5982 C.ar         1    LIG   0.0000
  12 C12          5.8984    -1.8111     4.2749 C.ar         1    LIG   0.0000
  13 C13          4.9630    -0.9078     3.7802 C.ar         1    LIG   0.0000
  14 C14          3.7476    -0.6361     4.4671 C.2          1    LIG   0.0000
  15 O15          3.4591    -1.1797     5.5244 O.2          1    LIG   0.0000
  16 N16          2.8713     0.2666     3.9225 N.pl3        1    LIG   0.0000
  17 C17          1.6719     0.5398     4.5913 C.ar         1    LIG   0.0000
  18 C18          1.6264     1.5678     5.5277 C.ar         1    LIG   0.0000
  19 C19          0.4395     1.8458     6.1976 C.ar         1    LIG   0.0000
  20 C20         -0.6914     1.0853     5.9186 C.ar         1    LIG   0.0000
  21 Cl21        -2.2136     1.4354     6.7718 Cl           1    LIG   0.0000
  22 C22         -0.6547     0.0549     4.9844 C.ar         1    LIG   0.0000
  23 C23          0.5367    -0.2162     4.3196 C.ar         1    LIG   0.0000
  24 N24          0.5854     2.2633    -1.1218 N.am         1    LIG   0.0000
  25 C25          0.8678     2.5457    -2.5337 C.3          1    LIG   0.0000
  26 C26         -0.3537     2.9669    -3.2879 C.3          1    LIG   0.0000
  27 C27          0.6654     3.9908    -2.8814 C.3          1    LIG   0.0000
  28 H            0.0377     1.1925     1.1925 H            1    LIG   0.0000
  29 H            1.1925     0.0377     1.1925 H            1    LIG   0.0000
  30 H            6.5749    -0.0194     1.0316 H            1    LIG   0.0000
  31 H            7.7526    -2.7206     3.9598 H            1    LIG   0.0000
  32 H            5.7134    -2.2841     5.1363 H            1    LIG   0.0000
  33 H            2.4468     2.1066     5.7190 H            1    LIG   0.0000
  34 H            0.3996     2.5834     6.8716 H            1    LIG   0.0000
  35 H           -1.4749    -0.4843     4.7932 H            1    LIG   0.0000
  36 H            0.5769    -0.9546     3.6464 H            1    LIG   0.0000
  37 H           -0.1232     2.7795    -0.6406 H            1    LIG   0.0000
  38 H            1.5785     2.0234    -3.0049 H            1    LIG   0.0000
  39 H           -1.2483     2.9475    -2.8414 H            1    LIG   0.0000
  40 H           -0.4565     2.7191    -4.2512 H            1    LIG   0.0000
  41 H            1.2425     4.4247    -3.5734 H            1    LIG   0.0000
  42 H            0.4507     4.6530    -2.1635 H            1    LIG   0.0000
@<TRIPOS>BOND
   1        1        2 2
   2        2        3 1
   3        3        4 1
   4        4        5 1
   5        5        6 2
   6        6        7 1
   7        7        8 ar
   8        8        9 ar
   9        9       10 1
  10        9       11 ar
  11       11       12 ar
  12       12       13 ar
  13       13        7 ar
  14       13       14 1
  15       14       15 2
  16       14       16 1
  17       16        5 1
  18       16       17 1
  19       17       18 ar
  20       18       19 ar
  21       19       20 ar
  22       20       21 1
  23       20       22 ar
  24       22       23 ar
  25       23       17 ar
  26        2       24 am
  27       24       25 1
  28       25       26 1
  29       26       27 1
  30       27       25 1
  31        3       28 1
  32        3       29 1
  33        8       30 1
  34       11       31 1
  35       12       32 1
  36       18       33 1
  37       19       34 1
  38       22       35 1
  39       23       36 1
  40       24       37 1
  41       25       38 1
  42       26       39 1
  43       26       40 1
  44       27       41 1
  45       27       42 1

@<TRIPOS>MOLECULE

  42   45
SMALL
USER_CHARGES
@<TRIPOS>ATOM
   1 O1           0.6731     2.1428    -1.0400 O.2          1    LIG   0.0000
   2 C2           1.2925     1.2925    -0.4626 C.2          1    LIG   0.0000
   3 C3           1.0000     1.0000     1.0000 C.3          1    LIG   0.0000
   4 S4           2.0450     2.0450     2.0450 S.3          1    LIG   0.0000
   5 C5           1.3729     3.6297     1.7899 C.2          1    LIG   0.0000
   6 N6           0.3420     3.7505     0.9718 N.2          1    LIG   0.0000
   7 C7          -0.2393     4.9670     0.7227 C.ar         1    LIG   0.0000
   8 C8          -1.3246     5.0761    -0.1420 C.ar         1    LIG   0.0000
   9 C9          -1.9013     6.3200    -0.3812 C.ar         1    LIG   0.0000
  10 Cl10        -3.2888     6.4907    -1.4816 Cl           1    LIG   0.0000
  11 C11         -1.4180     7.4717     0.2275 C.ar         1    LIG   0.0000
  12 C12         -0.3336     7.3476     1.0878 C.ar         1    LIG   0.0000
  13 C13          0.2562     6.1127     1.3389 C.ar         1    LIG   0.0000
  14 C14          1.3656     5.9771     2.2185 C.2          1    LIG   0.0000
  15 O15          1.8601     6.9340     2.7987 O.2          1    LIG   0.0000
  16 N16          1.8967     4.7296     2.4208 N.pl3        1    LIG   0.0000
  17 C17          2.9894     4.5867     3.2845 C.ar         1    LIG   0.0000
  18 C18          2.7690     4.3451     4.6368 C.ar         1    LIG   0.0000
  19 C19          3.8485     4.2026     5.5024 C.ar         1    LIG   0.0000
  20 C20          5.1409     4.3052     4.9981 C.ar         1    LIG   0.0000
  21 Cl21         6.5269     4.1238     6.0998 Cl           1    LIG   0.0000
  22 C22          5.3705     4.5475     3.6475 C.ar         1    LIG   0.0000
  23 C23          4.2850     4.6890     2.7893 C.ar         1    LIG   0.0000
  24 N24          2.2633     0.5854    -1.1218 N.am         1    LIG   0.0000
  25 C25          2.5457     0.8678    -2.5337 C.3          1    LIG   0.0000
  26 C26          3.9872     0.6666    -2.8798 C.3          1    LIG   0.0000
  27 C27          2.9689    -0.3565    -3.2902 C.3          1    LIG   0.0000
  28 H            0.0377     1.1925     1.1925 H            1    LIG   0.0000
  29 H            1.1925     0.0377     1.1925 H            1    LIG   0.0000
  30 H           -1.6899     4.2608    -0.5913 H            1    LIG   0.0000
  31 H           -1.8376     8.3623     0.0520 H            1    LIG   0.0000
  32 H            0.0309     8.1638     1.5362 H            1    LIG   0.0000
  33 H            1.8348     4.2739     4.9863 H            1    LIG   0.0000
  34 H            3.6973     4.0285     6.4755 H            1    LIG   0.0000
  35 H            6.3047     4.6191     3.2978 H            1    LIG   0.0000
  36 H            4.4361     4.8642     1.8164 H            1    LIG   0.0000
  37 H            2.7795    -0.1232    -0.6406 H            1    LIG   0.0000
  38 H            2.0234     1.5785    -3.0049 H            1    LIG   0.0000
  39 H            4.6487     0.4530    -2.1609 H            1    LIG   0.0000
  40 H            4.4208     1.2453    -3.5705 H            1    LIG   0.0000
  41 H            2.7230    -0.4592    -4.2540 H            1    LIG   0.0000
  42 H            2.9509    -1.2515    -2.8444 H            1    LIG   0.0000
@<TRIPOS>BOND
   1        1        2 2
   2        2        3 1
   3        3        4 1
   4        4        5 1
   5        5        6 2
   6        6        7 1
   7        7        8 ar
   8        8        9 ar
   9        9       10 1
  10        9       11 ar
  11       11       12 ar
  12       12       13 ar
  13       13        7 ar
  14       13       14 1
  15       14       15 2
  16       14       16 1
  17       16        5 1
  18       16       17 1
  19       17       18 ar
  20       18       19 ar
  21       19       20 ar
  22       20       21 1
  23       20       22 ar
  24       22       23 ar
  25       23       17 ar
  26        2       24 am
  27       24       25 1
  28       25       26 1
  29       26       27 1
  30       27       25 1
  31        3       28 1
  32        3       29 1
  33        8       30 1
  34       11       31 1
  35       12       32 1
  36       18       33 1
  37       19       34 1
  38       22       35 1
  39       23       36 1
  40       24       37 1
  41       25       38 1
  42       26       39 1
  43       26       40 1
  44       27       41 1
  45       27       42 1

@<TRIPOS>MOLECULE

  42   45
SMALL
USER_CHARGES
@<TRIPOS>ATOM
   1 O1           2.1428     0.6731    -1.0400 O.2          1    LIG   0.0000
   2 C2           1.2925     1.2925    -0.4626 C.2          1    LIG   0.0000
   3 C3           1.0000     1.0000     1.0000 C.3          1    LIG   0.0000
   4 S4           2.0450     2.0450     2.0450 S.3          1    LIG   0.0000
   5 C5           2.2642     3.4650     1.0633 C.2          1    LIG   0.0000
   6 N6           3.2927     3.5028     0.2343 N.2          1    LIG   0.0000
   7 C7           3.5284     4.5882    -0.5695 C.ar         1    LIG   0.0000
   8 C8           4.6167     4.6113    -1.4370 C.ar         1    LIG   0.0000
   9 C9           4.8385     5.7223    -2.2456 C.ar         1    LIG   0.0000
  10 Cl10         6.2212     5.7809    -3.3636 Cl           1    LIG   0.0000
  11 C11          3.9923     6.8237    -2.2114 C.ar         1    LIG   0.0000
  12 C12          2.9103     6.7868    -1.3399 C.ar         1    LIG   0.0000
  13 C13          2.6728     5.6852    -0.5238 C.ar         1    LIG   0.0000
  14 C14          1.5673     5.6393     0.3699 C.2          1    LIG   0.0000
  15 O15          0.7695     6.5614     0.4702 O.2          1    LIG   0.0000
  16 N16          1.3928     4.5217     1.1443 N.pl3        1    LIG   0.0000
  17 C17          0.3078     4.4678     2.0275 C.ar         1    LIG   0.0000
  18 C18         -0.9066     3.9464     1.5927 C.ar         1    LIG   0.0000
  19 C19         -1.9903     3.8898     2.4629 C.ar         1    LIG   0.0000
  20 C20         -1.8411     4.3595     3.7639 C.ar         1    LIG   0.0000
  21 Cl21        -3.2234     4.2901     4.8829 Cl           1    LIG   0.0000
  22 C22         -0.6308     4.8833     4.2069 C.ar         1    LIG   0.0000
  23 C23          0.4474     4.9363     3.3296 C.ar         1    LIG   0.0000
  24 N24          0.5854     2.2633    -1.1218 N.am         1    LIG   0.0000
  25 C25          0.8678     2.5457    -2.5337 C.3          1    LIG   0.0000
  26 C26         -0.3537     2.9669    -3.2879 C.3          1    LIG   0.0000
  27 C27          0.6654     3.9908    -2.8814 C.3          1    LIG   0.0000
  28 H            0.0377     1.1925     1.1925 H            1    LIG   0.0000
  29 H            1.1925     0.0377     1.1925 H            1    LIG   0.0000
  30 H            5.2392     3.8298    -1.4792 H            1    LIG   0.0000
  31 H            4.1568     7.6184    -2.7956 H            1    LIG   0.0000
  32 H            2.2888     7.5692    -1.2985 H            1    LIG   0.0000
  33 H           -1.0003     3.6125     0.6548 H            1    LIG   0.0000
  34 H           -2.8659     3.5160     2.1571 H            1    LIG   0.0000
  35 H           -0.5370     5.2177     5.1446 H            1    LIG   0.0000
  36 H            1.3227     5.3112     3.6350 H            1    LIG   0.0000
  37 H           -0.1232     2.7795    -0.6406 H            1    LIG   0.0000
  38 H            1.5785     2.0234    -3.0049 H            1    LIG   0.0000
  39 H           -1.2483     2.9475    -2.8414 H            1    LIG   0.0000
  40 H           -0.4565     2.7191    -4.2512 H            1    LIG   0.0000
  41 H            1.2425     4.4247    -3.5734 H            1    LIG   0.0000
  42 H            0.4507     4.6530    -2.1635 H            1    LIG   0.0000
@<TRIPOS>BOND
   1        1        2 2
   2        2        3 1
   3        3        4 1
   4        4        5 1
   5        5        6 2
   6        6        7 1
   7        7        8 ar
   8        8        9 ar
   9        9       10 1
  10        9       11 ar
  11       11       12 ar
  12       12       13 ar
  13       13        7 ar
  14       13       14 1
  15       14       15 2
  16       14       16 1
  17       16        5 1
  18       16       17 1
  19       17       18 ar
  20       18       19 ar
  21       19       20 ar
  22       20       21 1
  23       20       22 ar
  24       22       23 ar
  25       23       17 ar
  26        2       24 am
  27       24       25 1
  28       25       26 1
  29       26       27 1
  30       27       25 1
  31        3       28 1
  32        3       29 1
  33        8       30 1
  34       11       31 1
  35       12       32 1
  36       18       33 1
  37       19       34 1
  38       22       35 1
  39       23       36 1
  40       24       37 1
  41       25       38 1
  42       26       39 1
  43       26       40 1
  44       27       41 1
  45       27       42 1

