@<TRIPOS>MOLECULE
*****
 42 45 0 0 0
SMALL
USER_CHARGES

@<TRIPOS>ATOM
      1 O1          0.7009    0.7009   -1.3228 O.2     1  LIG1        0.0000
      2 C2          1.2925    1.2925   -0.4626 C.2     1  LIG1        0.0000
      3 C3          1.0000    1.0000    1.0000 C.3     1  LIG1        0.0000
      4 S4          2.0450    2.0450    2.0450 S.3     1  LIG1        0.0000
      5 C5          1.5709    1.5709    3.6508 C.2     1  LIG1        0.0000
      6 N6          0.6410    0.6410    3.7823 N.2     1  LIG1        0.0000
      7 C7          0.2174    0.2175    5.0156 C.3     1  LIG1        0.0000
      8 C8         -0.7632   -0.7630    5.1358 C.3     1  LIG1        0.0000
      9 C9         -1.1792   -1.1801    6.3969 C.3     1  LIG1        0.0000
     10 Cl10       -2.4308   -2.4308    6.5820 Cl      1  LIG1        0.0000
     11 C11        -0.6354   -0.6384    7.5549 C.3     1  LIG1        0.0000
     12 C12         0.3422    0.3401    7.4195 C.3     1  LIG1        0.0000
     13 C13         0.7704    0.7699    6.1674 C.3     1  LIG1        0.0000
     14 C14         1.7709    1.7701    6.0203 C.2     1  LIG1        0.0000
     15 O15         2.3062    2.3051    6.9815 O.2     1  LIG1        0.0000
     16 N16         2.1459    2.1452    4.7561 N.am    1  LIG1        0.0000
     17 C17         3.1295    3.1296    4.6016 C.3     1  LIG1        0.0000
     18 C18         4.4678    2.7572    4.5258 C.3     1  LIG1        0.0000
     19 C19         5.4520    3.7283    4.3732 C.3     1  LIG1        0.0000
     20 C20         5.0791    5.0665    4.2986 C.3     1  LIG1        0.0000
     21 Cl21        6.3329    6.3145    4.1031 Cl      1  LIG1        0.0000
     22 C22         3.7433    5.4479    4.3743 C.3     1  LIG1        0.0000
     23 C23         2.7660    4.4699    4.5274 C.3     1  LIG1        0.0000
     24 N24         2.2316    2.2316   -0.7989 N.am    1  LIG1        0.0000
     25 C25         2.5140    2.5140   -2.2108 C.3     1  LIG1        0.0000
     26 C26         2.8842    3.9445   -2.4448 C.3     1  LIG1        0.0000
     27 C27         3.9481    2.8861   -2.4458 C.3     1  LIG1        0.0000
     28 H           0.0377    1.1925    1.1925 H       1  LIG1        0.0000
     29 H           1.1925    0.0377    1.1925 H       1  LIG1        0.0000
     30 H          -1.1688   -1.1677    4.3162 H       1  LIG1        0.0000
     31 H          -0.9381   -0.9432    8.4580 H       1  LIG1        0.0000
     32 H           0.7467    0.7441    8.2399 H       1  LIG1        0.0000
     33 H           4.7222    1.7917    4.5811 H       1  LIG1        0.0000
     34 H           6.4158    3.4677    4.3177 H       1  LIG1        0.0000
     35 H           3.4888    6.4134    4.3194 H       1  LIG1        0.0000
     36 H           1.8022    4.7306    4.5840 H       1  LIG1        0.0000
     37 H           2.7247    2.7247   -0.0820 H       1  LIG1        0.0000
     38 H           2.0150    2.0150   -2.9193 H       1  LIG1        0.0000
     39 H           2.8349    4.6029   -1.6937 H       1  LIG1        0.0000
     40 H           2.6258    4.3943   -3.2997 H       1  LIG1        0.0000
     41 H           4.3980    2.6295   -3.3013 H       1  LIG1        0.0000
     42 H           4.6071    2.8382   -1.6952 H       1  LIG1        0.0000
@<TRIPOS>BOND
     1     1     2    2
     2     2     3    1
     3     3     4    1
     4     4     5    1
     5     5     6    2
     6     6     7    1
     7     7     8   ar
     8     8     9   ar
     9     9    10    1
    10     9    11   ar
    11    11    12   ar
    12    12    13   ar
    13    13     7   ar
    14    13    14    1
    15    14    15    2
    16    14    16   am
    17    16     5    1
    18    16    17    1
    19    17    18   ar
    20    18    19   ar
    21    19    20   ar
    22    20    21    1
    23    20    22   ar
    24    22    23   ar
    25    23    17   ar
    26     2    24   am
    27    24    25    1
    28    25    26    1
    29    26    27    1
    30    27    25    1
    31     3    28    1
    32     3    29    1
    33     8    30    1
    34    11    31    1
    35    12    32    1
    36    18    33    1
    37    19    34    1
    38    22    35    1
    39    23    36    1
    40    24    37    1
    41    25    38    1
    42    26    39    1
    43    26    40    1
    44    27    41    1
    45    27    42    1
