@<TRIPOS>MOLECULE
*****
 42 45 0 0 0
SMALL
USER_CHARGES

@<TRIPOS>ATOM
      1 O1          2.1151    2.1151   -0.7571 O.2     1  LIG1        0.0000
      2 C2          1.2925    1.2925   -0.4626 C.2     1  LIG1        0.0000
      3 C3          1.0000    1.0000    1.0000 C.3     1  LIG1        0.0000
      4 S4          2.0450    2.0450    2.0450 S.3     1  LIG1        0.0000
      5 C5          3.6297    1.3729    1.7899 C.2     1  LIG1        0.0000
      6 N6          3.7505    0.3420    0.9718 N.2     1  LIG1        0.0000
      7 C7          4.9670   -0.2394    0.7228 C.3     1  LIG1        0.0000
      8 C8          5.0760   -1.3247   -0.1418 C.3     1  LIG1        0.0000
      9 C9          6.3202   -1.9004   -0.3822 C.3     1  LIG1        0.0000
     10 Cl10        6.4907   -3.2888   -1.4816 Cl      1  LIG1        0.0000
     11 C11         7.4723   -1.4154    0.2242 C.3     1  LIG1        0.0000
     12 C12         7.3480   -0.3317    1.0855 C.3     1  LIG1        0.0000
     13 C13         6.1128    0.2566    1.3383 C.3     1  LIG1        0.0000
     14 C14         5.9773    1.3663    2.2176 C.2     1  LIG1        0.0000
     15 O15         6.9342    1.8611    2.7975 O.2     1  LIG1        0.0000
     16 N16         4.7298    1.8973    2.4201 N.am    1  LIG1        0.0000
     17 C17         4.5867    2.9894    3.2846 C.3     1  LIG1        0.0000
     18 C18         4.6881    4.2822    2.7806 C.3     1  LIG1        0.0000
     19 C19         4.5482    5.3731    3.6322 C.3     1  LIG1        0.0000
     20 C20         4.3077    5.1521    4.9844 C.3     1  LIG1        0.0000
     21 Cl21        4.1274    6.5432    6.0798 Cl      1  LIG1        0.0000
     22 C22         4.2057    3.8627    5.4971 C.3     1  LIG1        0.0000
     23 C23         4.3473    2.7778    4.6382 C.3     1  LIG1        0.0000
     24 N24         0.6171    0.6171   -1.4447 N.am    1  LIG1        0.0000
     25 C25         0.8995    0.8995   -2.8566 C.3     1  LIG1        0.0000
     26 C26         0.7493   -0.3110   -3.7229 C.3     1  LIG1        0.0000
     27 C27        -0.3138    0.7482   -3.7258 C.3     1  LIG1        0.0000
     28 H           0.0377    1.1925    1.1925 H       1  LIG1        0.0000
     29 H           1.1925    0.0377    1.1925 H       1  LIG1        0.0000
     30 H           4.2606   -1.6909   -0.5901 H       1  LIG1        0.0000
     31 H           8.3633   -1.8330    0.0465 H       1  LIG1        0.0000
     32 H           8.1643    0.0332    1.5334 H       1  LIG1        0.0000
     33 H           4.8615    4.4270    1.8065 H       1  LIG1        0.0000
     34 H           4.6196    6.3051    3.2766 H       1  LIG1        0.0000
     35 H           4.0326    3.7177    6.4712 H       1  LIG1        0.0000
     36 H           4.2770    1.8458    4.9939 H       1  LIG1        0.0000
     37 H          -0.0684   -0.0684   -1.1993 H       1  LIG1        0.0000
     38 H           1.5869    1.5869   -3.0906 H       1  LIG1        0.0000
     39 H           0.5656   -1.2024   -3.3086 H       1  LIG1        0.0000
     40 H           1.3386   -0.4299   -4.5220 H       1  LIG1        0.0000
     41 H          -0.4325    1.3359   -4.5261 H       1  LIG1        0.0000
     42 H          -1.2055    0.5634   -3.3127 H       1  LIG1        0.0000
@<TRIPOS>BOND
     1     1     2    2
     2     2     3    1
     3     3     4    1
     4     4     5    1
     5     5     6    2
     6     6     7    1
     7     7     8   ar
     8     8     9   ar
     9     9    10    1
    10     9    11   ar
    11    11    12   ar
    12    12    13   ar
    13    13     7   ar
    14    13    14    1
    15    14    15    2
    16    14    16   am
    17    16     5    1
    18    16    17    1
    19    17    18   ar
    20    18    19   ar
    21    19    20   ar
    22    20    21    1
    23    20    22   ar
    24    22    23   ar
    25    23    17   ar
    26     2    24   am
    27    24    25    1
    28    25    26    1
    29    26    27    1
    30    27    25    1
    31     3    28    1
    32     3    29    1
    33     8    30    1
    34    11    31    1
    35    12    32    1
    36    18    33    1
    37    19    34    1
    38    22    35    1
    39    23    36    1
    40    24    37    1
    41    25    38    1
    42    26    39    1
    43    26    40    1
    44    27    41    1
    45    27    42    1
