@<TRIPOS>MOLECULE
*****
 42 45 0 0 0
SMALL
USER_CHARGES

@<TRIPOS>ATOM
      1 O1          2.1428    0.6731   -1.0400 O.2     1  LIG1        0.0000
      2 C2          1.2925    1.2925   -0.4626 C.2     1  LIG1        0.0000
      3 C3          1.0000    1.0000    1.0000 C.3     1  LIG1        0.0000
      4 S4          2.0450    2.0450    2.0450 S.3     1  LIG1        0.0000
      5 C5          3.1555    0.8986    2.7384 C.2     1  LIG1        0.0000
      6 N6          4.2836    0.6497    2.0965 N.2     1  LIG1        0.0000
      7 C7          5.2055   -0.2411    2.5825 C.3     1  LIG1        0.0000
      8 C8          6.3887   -0.4914    1.8933 C.3     1  LIG1        0.0000
      9 C9          7.3126   -1.3988    2.4036 C.3     1  LIG1        0.0000
     10 Cl10        8.8330   -1.7396    1.5450 Cl      1  LIG1        0.0000
     11 C11         7.0843   -2.0706    3.5982 C.3     1  LIG1        0.0000
     12 C12         5.8984   -1.8111    4.2749 C.3     1  LIG1        0.0000
     13 C13         4.9630   -0.9078    3.7802 C.3     1  LIG1        0.0000
     14 C14         3.7476   -0.6361    4.4671 C.2     1  LIG1        0.0000
     15 O15         3.4591   -1.1797    5.5244 O.2     1  LIG1        0.0000
     16 N16         2.8713    0.2666    3.9225 N.am    1  LIG1        0.0000
     17 C17         1.6719    0.5398    4.5913 C.3     1  LIG1        0.0000
     18 C18         1.6264    1.5678    5.5277 C.3     1  LIG1        0.0000
     19 C19         0.4395    1.8458    6.1976 C.3     1  LIG1        0.0000
     20 C20        -0.6914    1.0853    5.9186 C.3     1  LIG1        0.0000
     21 Cl21       -2.2136    1.4354    6.7718 Cl      1  LIG1        0.0000
     22 C22        -0.6547    0.0549    4.9844 C.3     1  LIG1        0.0000
     23 C23         0.5367   -0.2162    4.3196 C.3     1  LIG1        0.0000
     24 N24         0.5854    2.2633   -1.1218 N.am    1  LIG1        0.0000
     25 C25         0.8678    2.5457   -2.5337 C.3     1  LIG1        0.0000
     26 C26        -0.3537    2.9669   -3.2879 C.3     1  LIG1        0.0000
     27 C27         0.6654    3.9908   -2.8814 C.3     1  LIG1        0.0000
     28 H           0.0377    1.1925    1.1925 H       1  LIG1        0.0000
     29 H           1.1925    0.0377    1.1925 H       1  LIG1        0.0000
     30 H           6.5749   -0.0194    1.0316 H       1  LIG1        0.0000
     31 H           7.7526   -2.7206    3.9598 H       1  LIG1        0.0000
     32 H           5.7134   -2.2841    5.1363 H       1  LIG1        0.0000
     33 H           2.4468    2.1066    5.7190 H       1  LIG1        0.0000
     34 H           0.3996    2.5834    6.8716 H       1  LIG1        0.0000
     35 H          -1.4749   -0.4843    4.7932 H       1  LIG1        0.0000
     36 H           0.5769   -0.9546    3.6464 H       1  LIG1        0.0000
     37 H          -0.1232    2.7795   -0.6406 H       1  LIG1        0.0000
     38 H           1.5785    2.0234   -3.0049 H       1  LIG1        0.0000
     39 H          -1.2483    2.9475   -2.8414 H       1  LIG1        0.0000
     40 H          -0.4565    2.7191   -4.2512 H       1  LIG1        0.0000
     41 H           1.2425    4.4247   -3.5734 H       1  LIG1        0.0000
     42 H           0.4507    4.6530   -2.1635 H       1  LIG1        0.0000
@<TRIPOS>BOND
     1     1     2    2
     2     2     3    1
     3     3     4    1
     4     4     5    1
     5     5     6    2
     6     6     7    1
     7     7     8   ar
     8     8     9   ar
     9     9    10    1
    10     9    11   ar
    11    11    12   ar
    12    12    13   ar
    13    13     7   ar
    14    13    14    1
    15    14    15    2
    16    14    16   am
    17    16     5    1
    18    16    17    1
    19    17    18   ar
    20    18    19   ar
    21    19    20   ar
    22    20    21    1
    23    20    22   ar
    24    22    23   ar
    25    23    17   ar
    26     2    24   am
    27    24    25    1
    28    25    26    1
    29    26    27    1
    30    27    25    1
    31     3    28    1
    32     3    29    1
    33     8    30    1
    34    11    31    1
    35    12    32    1
    36    18    33    1
    37    19    34    1
    38    22    35    1
    39    23    36    1
    40    24    37    1
    41    25    38    1
    42    26    39    1
    43    26    40    1
    44    27    41    1
    45    27    42    1
