@<TRIPOS>MOLECULE
*****
 42 45 0 0 0
SMALL
USER_CHARGES

@<TRIPOS>ATOM
      1 O1          0.6731    2.1428   -1.0400 O.2     1  LIG1        0.0000
      2 C2          1.2925    1.2925   -0.4626 C.2     1  LIG1        0.0000
      3 C3          1.0000    1.0000    1.0000 C.3     1  LIG1        0.0000
      4 S4          2.0450    2.0450    2.0450 S.3     1  LIG1        0.0000
      5 C5          2.9575    0.8776    2.9575 C.2     1  LIG1        0.0000
      6 N6          2.7352   -0.4061    2.7352 N.2     1  LIG1        0.0000
      7 C7          3.4161   -1.3819    3.4163 C.3     1  LIG1        0.0000
      8 C8          3.1694   -2.7294    3.1696 C.3     1  LIG1        0.0000
      9 C9          3.8718   -3.7052    3.8709 C.3     1  LIG1        0.0000
     10 Cl10        3.5777   -5.4351    3.5777 Cl      1  LIG1        0.0000
     11 C11         4.8258   -3.3675    4.8228 C.3     1  LIG1        0.0000
     12 C12         5.0611   -2.0183    5.0590 C.3     1  LIG1        0.0000
     13 C13         4.3686   -1.0289    4.3681 C.3     1  LIG1        0.0000
     14 C14         4.6041    0.3539    4.6033 C.2     1  LIG1        0.0000
     15 O15         5.4234    0.7471    5.4223 O.2     1  LIG1        0.0000
     16 N16         3.8863    1.2753    3.8856 N.am    1  LIG1        0.0000
     17 C17         4.1109    2.6388    4.1109 C.3     1  LIG1        0.0000
     18 C18         5.0767    3.3081    3.3661 C.3     1  LIG1        0.0000
     19 C19         5.3073    4.6625    3.5837 C.3     1  LIG1        0.0000
     20 C20         4.5630    5.3309    4.5503 C.3     1  LIG1        0.0000
     21 Cl21        4.8525    7.0638    4.8341 Cl      1  LIG1        0.0000
     22 C22         3.5958    4.6693    5.3004 C.3     1  LIG1        0.0000
     23 C23         3.3722    3.3148    5.0762 C.3     1  LIG1        0.0000
     24 N24         2.2633    0.5854   -1.1218 N.am    1  LIG1        0.0000
     25 C25         2.5457    0.8678   -2.5337 C.3     1  LIG1        0.0000
     26 C26         3.9872    0.6666   -2.8798 C.3     1  LIG1        0.0000
     27 C27         2.9689   -0.3565   -3.2902 C.3     1  LIG1        0.0000
     28 H           0.0377    1.1925    1.1925 H       1  LIG1        0.0000
     29 H           1.1925    0.0377    1.1925 H       1  LIG1        0.0000
     30 H           2.4875   -2.9965    2.4886 H       1  LIG1        0.0000
     31 H           5.3277   -4.0735    5.3226 H       1  LIG1        0.0000
     32 H           5.7431   -1.7527    5.7405 H       1  LIG1        0.0000
     33 H           5.6050    2.8156    2.6744 H       1  LIG1        0.0000
     34 H           5.9998    5.1498    3.0517 H       1  LIG1        0.0000
     35 H           3.0677    5.1616    5.9923 H       1  LIG1        0.0000
     36 H           2.6806    2.8272    5.6090 H       1  LIG1        0.0000
     37 H           2.7795   -0.1232   -0.6406 H       1  LIG1        0.0000
     38 H           2.0234    1.5785   -3.0049 H       1  LIG1        0.0000
     39 H           4.6487    0.4530   -2.1609 H       1  LIG1        0.0000
     40 H           4.4208    1.2453   -3.5705 H       1  LIG1        0.0000
     41 H           2.7230   -0.4592   -4.2540 H       1  LIG1        0.0000
     42 H           2.9509   -1.2515   -2.8444 H       1  LIG1        0.0000
@<TRIPOS>BOND
     1     1     2    2
     2     2     3    1
     3     3     4    1
     4     4     5    1
     5     5     6    2
     6     6     7    1
     7     7     8   ar
     8     8     9   ar
     9     9    10    1
    10     9    11   ar
    11    11    12   ar
    12    12    13   ar
    13    13     7   ar
    14    13    14    1
    15    14    15    2
    16    14    16   am
    17    16     5    1
    18    16    17    1
    19    17    18   ar
    20    18    19   ar
    21    19    20   ar
    22    20    21    1
    23    20    22   ar
    24    22    23   ar
    25    23    17   ar
    26     2    24   am
    27    24    25    1
    28    25    26    1
    29    26    27    1
    30    27    25    1
    31     3    28    1
    32     3    29    1
    33     8    30    1
    34    11    31    1
    35    12    32    1
    36    18    33    1
    37    19    34    1
    38    22    35    1
    39    23    36    1
    40    24    37    1
    41    25    38    1
    42    26    39    1
    43    26    40    1
    44    27    41    1
    45    27    42    1
