@<TRIPOS>MOLECULE
*****
 42 45 0 0 0
SMALL
USER_CHARGES

@<TRIPOS>ATOM
      1 O1          2.1428    0.6731   -1.0400 O.2     1  LIG1        0.0000
      2 C2          1.2925    1.2925   -0.4626 C.2     1  LIG1        0.0000
      3 C3          1.0000    1.0000    1.0000 C.3     1  LIG1        0.0000
      4 S4          2.0450    2.0450    2.0450 S.3     1  LIG1        0.0000
      5 C5          3.4650    2.2642    1.0633 C.2     1  LIG1        0.0000
      6 N6          3.5028    3.2927    0.2343 N.2     1  LIG1        0.0000
      7 C7          4.5882    3.5284   -0.5696 C.3     1  LIG1        0.0000
      8 C8          4.6112    4.6166   -1.4372 C.3     1  LIG1        0.0000
      9 C9          5.7228    4.8393   -2.2446 C.3     1  LIG1        0.0000
     10 Cl10        5.7809    6.2212   -3.3636 Cl      1  LIG1        0.0000
     11 C11         6.8255    3.9948   -2.2083 C.3     1  LIG1        0.0000
     12 C12         6.7880    2.9120   -1.3378 C.3     1  LIG1        0.0000
     13 C13         5.6855    2.6732   -0.5233 C.3     1  LIG1        0.0000
     14 C14         5.6398    1.5680    0.3707 C.2     1  LIG1        0.0000
     15 O15         6.5621    0.7704    0.4714 O.2     1  LIG1        0.0000
     16 N16         4.5220    1.3934    1.1450 N.am    1  LIG1        0.0000
     17 C17         4.4678    0.3077    2.0275 C.3     1  LIG1        0.0000
     18 C18         4.9364    0.4565    3.3290 C.3     1  LIG1        0.0000
     19 C19         4.8873   -0.6168    4.2124 C.3     1  LIG1        0.0000
     20 C20         4.3668   -1.8311    3.7767 C.3     1  LIG1        0.0000
     21 Cl21        4.3007   -3.2087    4.9016 Cl      1  LIG1        0.0000
     22 C22         3.8969   -1.9890    2.4767 C.3     1  LIG1        0.0000
     23 C23         3.9503   -0.9103    1.6001 C.3     1  LIG1        0.0000
     24 N24         0.5854    2.2633   -1.1218 N.am    1  LIG1        0.0000
     25 C25         0.8678    2.5457   -2.5337 C.3     1  LIG1        0.0000
     26 C26        -0.3537    2.9669   -3.2879 C.3     1  LIG1        0.0000
     27 C27         0.6654    3.9908   -2.8814 C.3     1  LIG1        0.0000
     28 H           0.0377    1.1925    1.1925 H       1  LIG1        0.0000
     29 H           1.1925    0.0377    1.1925 H       1  LIG1        0.0000
     30 H           3.8292    5.2384   -1.4803 H       1  LIG1        0.0000
     31 H           7.6214    4.1609   -2.7904 H       1  LIG1        0.0000
     32 H           7.5706    2.2909   -1.2959 H       1  LIG1        0.0000
     33 H           5.3084    1.3349    3.6292 H       1  LIG1        0.0000
     34 H           5.2221   -0.5167    5.1494 H       1  LIG1        0.0000
     35 H           3.5252   -2.8674    2.1762 H       1  LIG1        0.0000
     36 H           3.6166   -1.0107    0.6628 H       1  LIG1        0.0000
     37 H          -0.1232    2.7795   -0.6406 H       1  LIG1        0.0000
     38 H           1.5785    2.0234   -3.0049 H       1  LIG1        0.0000
     39 H          -1.2483    2.9475   -2.8414 H       1  LIG1        0.0000
     40 H          -0.4565    2.7191   -4.2512 H       1  LIG1        0.0000
     41 H           1.2425    4.4247   -3.5734 H       1  LIG1        0.0000
     42 H           0.4507    4.6530   -2.1635 H       1  LIG1        0.0000
@<TRIPOS>BOND
     1     1     2    2
     2     2     3    1
     3     3     4    1
     4     4     5    1
     5     5     6    2
     6     6     7    1
     7     7     8   ar
     8     8     9   ar
     9     9    10    1
    10     9    11   ar
    11    11    12   ar
    12    12    13   ar
    13    13     7   ar
    14    13    14    1
    15    14    15    2
    16    14    16   am
    17    16     5    1
    18    16    17    1
    19    17    18   ar
    20    18    19   ar
    21    19    20   ar
    22    20    21    1
    23    20    22   ar
    24    22    23   ar
    25    23    17   ar
    26     2    24   am
    27    24    25    1
    28    25    26    1
    29    26    27    1
    30    27    25    1
    31     3    28    1
    32     3    29    1
    33     8    30    1
    34    11    31    1
    35    12    32    1
    36    18    33    1
    37    19    34    1
    38    22    35    1
    39    23    36    1
    40    24    37    1
    41    25    38    1
    42    26    39    1
    43    26    40    1
    44    27    41    1
    45    27    42    1
