@<TRIPOS>MOLECULE
*****
 42 45 0 0 0
SMALL
USER_CHARGES

@<TRIPOS>ATOM
      1 O1          2.1151    2.1151   -0.7571 O.2     1  LIG1        0.0000
      2 C2          1.2925    1.2925   -0.4626 C.2     1  LIG1        0.0000
      3 C3          1.0000    1.0000    1.0000 C.3     1  LIG1        0.0000
      4 S4          2.0450    2.0450    2.0450 S.3     1  LIG1        0.0000
      5 C5          0.8776    2.9575    2.9575 C.2     1  LIG1        0.0000
      6 N6          0.4562    2.4646    4.1091 N.2     1  LIG1        0.0000
      7 C7         -0.4622    3.1275    4.8816 C.3     1  LIG1        0.0000
      8 C8         -0.8952    2.5938    6.0920 C.3     1  LIG1        0.0000
      9 C9         -1.8275    3.2826    6.8624 C.3     1  LIG1        0.0000
     10 Cl10       -2.4001    2.6253    8.4133 Cl      1  LIG1        0.0000
     11 C11        -2.3450    4.5049    6.4520 C.3     1  LIG1        0.0000
     12 C12        -1.9040    5.0253    5.2410 C.3     1  LIG1        0.0000
     13 C13        -0.9729    4.3510    4.4573 C.3     1  LIG1        0.0000
     14 C14        -0.5159    4.8771    3.2174 C.2     1  LIG1        0.0000
     15 O15        -0.9152    5.9451    2.7739 O.2     1  LIG1        0.0000
     16 N16         0.4037    4.1598    2.4969 N.am    1  LIG1        0.0000
     17 C17         0.8588    4.6695    1.2748 C.3     1  LIG1        0.0000
     18 C18         1.9792    5.4937    1.2489 C.3     1  LIG1        0.0000
     19 C19         2.4380    6.0054    0.0395 C.3     1  LIG1        0.0000
     20 C20         1.7634    5.6825   -1.1335 C.3     1  LIG1        0.0000
     21 Cl21        2.3448    6.3334   -2.6846 Cl      1  LIG1        0.0000
     22 C22         0.6416    4.8598   -1.1168 C.3     1  LIG1        0.0000
     23 C23         0.1898    4.3529    0.0973 C.3     1  LIG1        0.0000
     24 N24         0.6171    0.6171   -1.4447 N.am    1  LIG1        0.0000
     25 C25         0.8995    0.8995   -2.8566 C.3     1  LIG1        0.0000
     26 C26         0.7493   -0.3110   -3.7229 C.3     1  LIG1        0.0000
     27 C27        -0.3138    0.7482   -3.7258 C.3     1  LIG1        0.0000
     28 H           0.0377    1.1925    1.1925 H       1  LIG1        0.0000
     29 H           1.1925    0.0377    1.1925 H       1  LIG1        0.0000
     30 H          -0.5364    1.7155    6.4081 H       1  LIG1        0.0000
     31 H          -3.0140    4.9952    7.0106 H       1  LIG1        0.0000
     32 H          -2.2639    5.9035    4.9260 H       1  LIG1        0.0000
     33 H           2.4547    5.7183    2.0995 H       1  LIG1        0.0000
     34 H           3.2430    6.5982    0.0136 H       1  LIG1        0.0000
     35 H           0.1658    4.6355   -1.9673 H       1  LIG1        0.0000
     36 H          -0.6158    3.7611    0.1234 H       1  LIG1        0.0000
     37 H          -0.0684   -0.0684   -1.1993 H       1  LIG1        0.0000
     38 H           1.5869    1.5869   -3.0906 H       1  LIG1        0.0000
     39 H           0.5656   -1.2024   -3.3086 H       1  LIG1        0.0000
     40 H           1.3386   -0.4299   -4.5220 H       1  LIG1        0.0000
     41 H          -0.4325    1.3359   -4.5261 H       1  LIG1        0.0000
     42 H          -1.2055    0.5634   -3.3127 H       1  LIG1        0.0000
@<TRIPOS>BOND
     1     1     2    2
     2     2     3    1
     3     3     4    1
     4     4     5    1
     5     5     6    2
     6     6     7    1
     7     7     8   ar
     8     8     9   ar
     9     9    10    1
    10     9    11   ar
    11    11    12   ar
    12    12    13   ar
    13    13     7   ar
    14    13    14    1
    15    14    15    2
    16    14    16   am
    17    16     5    1
    18    16    17    1
    19    17    18   ar
    20    18    19   ar
    21    19    20   ar
    22    20    21    1
    23    20    22   ar
    24    22    23   ar
    25    23    17   ar
    26     2    24   am
    27    24    25    1
    28    25    26    1
    29    26    27    1
    30    27    25    1
    31     3    28    1
    32     3    29    1
    33     8    30    1
    34    11    31    1
    35    12    32    1
    36    18    33    1
    37    19    34    1
    38    22    35    1
    39    23    36    1
    40    24    37    1
    41    25    38    1
    42    26    39    1
    43    26    40    1
    44    27    41    1
    45    27    42    1
