@<TRIPOS>MOLECULE
*****
 42 45 0 0 0
SMALL
USER_CHARGES

@<TRIPOS>ATOM
      1 O1          0.7009    0.7009   -1.3228 O.2     1  LIG1        0.0000
      2 C2          1.2925    1.2925   -0.4626 C.2     1  LIG1        0.0000
      3 C3          1.0000    1.0000    1.0000 C.3     1  LIG1        0.0000
      4 S4          2.0450    2.0450    2.0450 S.3     1  LIG1        0.0000
      5 C5          0.8776    2.9575    2.9575 C.2     1  LIG1        0.0000
      6 N6          0.4562    4.1091    2.4646 N.2     1  LIG1        0.0000
      7 C7         -0.4621    4.8817    3.1276 C.3     1  LIG1        0.0000
      8 C8         -0.8950    6.0921    2.5939 C.3     1  LIG1        0.0000
      9 C9         -1.8286    6.8617    3.2820 C.3     1  LIG1        0.0000
     10 Cl10       -2.4001    8.4133    2.6253 Cl      1  LIG1        0.0000
     11 C11        -2.3482    6.4499    4.5029 C.3     1  LIG1        0.0000
     12 C12        -1.9062    5.2396    5.0238 C.3     1  LIG1        0.0000
     13 C13        -0.9734    4.4570    4.3506 C.3     1  LIG1        0.0000
     14 C14        -0.5168    3.2168    4.8765 C.2     1  LIG1        0.0000
     15 O15        -0.9164    2.7732    5.9443 O.2     1  LIG1        0.0000
     16 N16         0.4030    2.4964    4.1594 N.am    1  LIG1        0.0000
     17 C17         0.8588    1.2748    4.6695 C.3     1  LIG1        0.0000
     18 C18         0.1853    0.1012    4.3461 C.3     1  LIG1        0.0000
     19 C19         0.6304   -1.1169    4.8490 C.3     1  LIG1        0.0000
     20 C20         1.7502   -1.1420    5.6740 C.3     1  LIG1        0.0000
     21 Cl21        2.3255   -2.6969    6.3211 Cl      1  LIG1        0.0000
     22 C22         2.4293    0.0268    6.0033 C.3     1  LIG1        0.0000
     23 C23         1.9768    1.2404    5.4961 C.3     1  LIG1        0.0000
     24 N24         2.2316    2.2316   -0.7989 N.am    1  LIG1        0.0000
     25 C25         2.5140    2.5140   -2.2108 C.3     1  LIG1        0.0000
     26 C26         2.8842    3.9445   -2.4448 C.3     1  LIG1        0.0000
     27 C27         3.9481    2.8861   -2.4458 C.3     1  LIG1        0.0000
     28 H           0.0377    1.1925    1.1925 H       1  LIG1        0.0000
     29 H           1.1925    0.0377    1.1925 H       1  LIG1        0.0000
     30 H          -0.5353    6.4088    1.7162 H       1  LIG1        0.0000
     31 H          -3.0194    7.0072    4.9918 H       1  LIG1        0.0000
     32 H          -2.2666    4.9243    5.9018 H       1  LIG1        0.0000
     33 H          -0.6186    0.1334    3.7522 H       1  LIG1        0.0000
     34 H           0.1512   -1.9643    4.6203 H       1  LIG1        0.0000
     35 H           3.2329   -0.0052    6.5975 H       1  LIG1        0.0000
     36 H           2.4552    2.0880    5.7257 H       1  LIG1        0.0000
     37 H           2.7247    2.7247   -0.0820 H       1  LIG1        0.0000
     38 H           2.0150    2.0150   -2.9193 H       1  LIG1        0.0000
     39 H           2.8349    4.6029   -1.6937 H       1  LIG1        0.0000
     40 H           2.6258    4.3943   -3.2997 H       1  LIG1        0.0000
     41 H           4.3980    2.6295   -3.3013 H       1  LIG1        0.0000
     42 H           4.6071    2.8382   -1.6952 H       1  LIG1        0.0000
@<TRIPOS>BOND
     1     1     2    2
     2     2     3    1
     3     3     4    1
     4     4     5    1
     5     5     6    2
     6     6     7    1
     7     7     8   ar
     8     8     9   ar
     9     9    10    1
    10     9    11   ar
    11    11    12   ar
    12    12    13   ar
    13    13     7   ar
    14    13    14    1
    15    14    15    2
    16    14    16   am
    17    16     5    1
    18    16    17    1
    19    17    18   ar
    20    18    19   ar
    21    19    20   ar
    22    20    21    1
    23    20    22   ar
    24    22    23   ar
    25    23    17   ar
    26     2    24   am
    27    24    25    1
    28    25    26    1
    29    26    27    1
    30    27    25    1
    31     3    28    1
    32     3    29    1
    33     8    30    1
    34    11    31    1
    35    12    32    1
    36    18    33    1
    37    19    34    1
    38    22    35    1
    39    23    36    1
    40    24    37    1
    41    25    38    1
    42    26    39    1
    43    26    40    1
    44    27    41    1
    45    27    42    1
