@<TRIPOS>MOLECULE
*****
 42 45 0 0 0
SMALL
USER_CHARGES

@<TRIPOS>ATOM
      1 O1          2.1428    0.6731   -1.0400 O.2     1  LIG1        0.0000
      2 C2          1.2925    1.2925   -0.4626 C.2     1  LIG1        0.0000
      3 C3          1.0000    1.0000    1.0000 C.3     1  LIG1        0.0000
      4 S4          2.0450    2.0450    2.0450 S.3     1  LIG1        0.0000
      5 C5          2.2642    3.4650    1.0633 C.2     1  LIG1        0.0000
      6 N6          3.2927    3.5028    0.2343 N.2     1  LIG1        0.0000
      7 C7          3.5284    4.5882   -0.5695 C.3     1  LIG1        0.0000
      8 C8          4.6167    4.6113   -1.4370 C.3     1  LIG1        0.0000
      9 C9          4.8385    5.7223   -2.2456 C.3     1  LIG1        0.0000
     10 Cl10        6.2212    5.7809   -3.3636 Cl      1  LIG1        0.0000
     11 C11         3.9923    6.8237   -2.2114 C.3     1  LIG1        0.0000
     12 C12         2.9103    6.7868   -1.3399 C.3     1  LIG1        0.0000
     13 C13         2.6728    5.6852   -0.5238 C.3     1  LIG1        0.0000
     14 C14         1.5673    5.6393    0.3699 C.2     1  LIG1        0.0000
     15 O15         0.7695    6.5614    0.4702 O.2     1  LIG1        0.0000
     16 N16         1.3928    4.5217    1.1443 N.am    1  LIG1        0.0000
     17 C17         0.3078    4.4678    2.0275 C.3     1  LIG1        0.0000
     18 C18        -0.9066    3.9464    1.5927 C.3     1  LIG1        0.0000
     19 C19        -1.9903    3.8898    2.4629 C.3     1  LIG1        0.0000
     20 C20        -1.8411    4.3595    3.7639 C.3     1  LIG1        0.0000
     21 Cl21       -3.2234    4.2901    4.8829 Cl      1  LIG1        0.0000
     22 C22        -0.6308    4.8833    4.2069 C.3     1  LIG1        0.0000
     23 C23         0.4474    4.9363    3.3296 C.3     1  LIG1        0.0000
     24 N24         0.5854    2.2633   -1.1218 N.am    1  LIG1        0.0000
     25 C25         0.8678    2.5457   -2.5337 C.3     1  LIG1        0.0000
     26 C26        -0.3537    2.9669   -3.2879 C.3     1  LIG1        0.0000
     27 C27         0.6654    3.9908   -2.8814 C.3     1  LIG1        0.0000
     28 H           0.0377    1.1925    1.1925 H       1  LIG1        0.0000
     29 H           1.1925    0.0377    1.1925 H       1  LIG1        0.0000
     30 H           5.2392    3.8298   -1.4792 H       1  LIG1        0.0000
     31 H           4.1568    7.6184   -2.7956 H       1  LIG1        0.0000
     32 H           2.2888    7.5692   -1.2985 H       1  LIG1        0.0000
     33 H          -1.0003    3.6125    0.6548 H       1  LIG1        0.0000
     34 H          -2.8659    3.5160    2.1571 H       1  LIG1        0.0000
     35 H          -0.5370    5.2177    5.1446 H       1  LIG1        0.0000
     36 H           1.3227    5.3112    3.6350 H       1  LIG1        0.0000
     37 H          -0.1232    2.7795   -0.6406 H       1  LIG1        0.0000
     38 H           1.5785    2.0234   -3.0049 H       1  LIG1        0.0000
     39 H          -1.2483    2.9475   -2.8414 H       1  LIG1        0.0000
     40 H          -0.4565    2.7191   -4.2512 H       1  LIG1        0.0000
     41 H           1.2425    4.4247   -3.5734 H       1  LIG1        0.0000
     42 H           0.4507    4.6530   -2.1635 H       1  LIG1        0.0000
@<TRIPOS>BOND
     1     1     2    2
     2     2     3    1
     3     3     4    1
     4     4     5    1
     5     5     6    2
     6     6     7    1
     7     7     8   ar
     8     8     9   ar
     9     9    10    1
    10     9    11   ar
    11    11    12   ar
    12    12    13   ar
    13    13     7   ar
    14    13    14    1
    15    14    15    2
    16    14    16   am
    17    16     5    1
    18    16    17    1
    19    17    18   ar
    20    18    19   ar
    21    19    20   ar
    22    20    21    1
    23    20    22   ar
    24    22    23   ar
    25    23    17   ar
    26     2    24   am
    27    24    25    1
    28    25    26    1
    29    26    27    1
    30    27    25    1
    31     3    28    1
    32     3    29    1
    33     8    30    1
    34    11    31    1
    35    12    32    1
    36    18    33    1
    37    19    34    1
    38    22    35    1
    39    23    36    1
    40    24    37    1
    41    25    38    1
    42    26    39    1
    43    26    40    1
    44    27    41    1
    45    27    42    1
