@<TRIPOS>MOLECULE
*****
 42 45 0 0 0
SMALL
USER_CHARGES

@<TRIPOS>ATOM
      1 O1          0.6731    2.1428   -1.0400 O.2     1  LIG1        0.0000
      2 C2          1.2925    1.2925   -0.4626 C.2     1  LIG1        0.0000
      3 C3          1.0000    1.0000    1.0000 C.3     1  LIG1        0.0000
      4 S4          2.0450    2.0450    2.0450 S.3     1  LIG1        0.0000
      5 C5          3.6297    1.3729    1.7899 C.2     1  LIG1        0.0000
      6 N6          4.3666    1.8576    0.8057 N.2     1  LIG1        0.0000
      7 C7          5.6241    1.3773    0.5455 C.3     1  LIG1        0.0000
      8 C8          6.3866    1.8994   -0.4954 C.3     1  LIG1        0.0000
      9 C9          7.6615    1.3989   -0.7430 C.3     1  LIG1        0.0000
     10 Cl10        8.6591    2.0457   -2.0664 Cl      1  LIG1        0.0000
     11 C11         8.2022    0.3792    0.0305 C.3     1  LIG1        0.0000
     12 C12         7.4292   -0.1328    1.0658 C.3     1  LIG1        0.0000
     13 C13         6.1527    0.3546    1.3281 C.3     1  LIG1        0.0000
     14 C14         5.3557   -0.1633    2.3861 C.2     1  LIG1        0.0000
     15 O15         5.7464   -1.0616    3.1190 O.2     1  LIG1        0.0000
     16 N16         4.1069    0.3647    2.5888 N.am    1  LIG1        0.0000
     17 C17         3.3149   -0.1394    3.6276 C.3     1  LIG1        0.0000
     18 C18         3.3957    0.4334    4.8928 C.3     1  LIG1        0.0000
     19 C19         2.6132   -0.0614    5.9311 C.3     1  LIG1        0.0000
     20 C20         1.7563   -1.1294    5.6855 C.3     1  LIG1        0.0000
     21 Cl21        0.7521   -1.7676    7.0091 Cl      1  LIG1        0.0000
     22 C22         1.6698   -1.7088    4.4236 C.3     1  LIG1        0.0000
     23 C23         2.4563   -1.2077    3.3914 C.3     1  LIG1        0.0000
     24 N24         2.2633    0.5854   -1.1218 N.am    1  LIG1        0.0000
     25 C25         2.5457    0.8678   -2.5337 C.3     1  LIG1        0.0000
     26 C26         3.9872    0.6666   -2.8798 C.3     1  LIG1        0.0000
     27 C27         2.9689   -0.3565   -3.2902 C.3     1  LIG1        0.0000
     28 H           0.0377    1.1925    1.1925 H       1  LIG1        0.0000
     29 H           1.1925    0.0377    1.1925 H       1  LIG1        0.0000
     30 H           6.0184    2.6341   -1.0653 H       1  LIG1        0.0000
     31 H           9.1193    0.0247   -0.1521 H       1  LIG1        0.0000
     32 H           7.7985   -0.8676    1.6347 H       1  LIG1        0.0000
     33 H           4.0161    1.2005    5.0559 H       1  LIG1        0.0000
     34 H           2.6661    0.3457    6.8429 H       1  LIG1        0.0000
     35 H           1.0497   -2.4762    4.2605 H       1  LIG1        0.0000
     36 H           2.4043   -1.6155    2.4798 H       1  LIG1        0.0000
     37 H           2.7795   -0.1232   -0.6406 H       1  LIG1        0.0000
     38 H           2.0234    1.5785   -3.0049 H       1  LIG1        0.0000
     39 H           4.6487    0.4530   -2.1609 H       1  LIG1        0.0000
     40 H           4.4208    1.2453   -3.5705 H       1  LIG1        0.0000
     41 H           2.7230   -0.4592   -4.2540 H       1  LIG1        0.0000
     42 H           2.9509   -1.2515   -2.8444 H       1  LIG1        0.0000
@<TRIPOS>BOND
     1     1     2    2
     2     2     3    1
     3     3     4    1
     4     4     5    1
     5     5     6    2
     6     6     7    1
     7     7     8   ar
     8     8     9   ar
     9     9    10    1
    10     9    11   ar
    11    11    12   ar
    12    12    13   ar
    13    13     7   ar
    14    13    14    1
    15    14    15    2
    16    14    16   am
    17    16     5    1
    18    16    17    1
    19    17    18   ar
    20    18    19   ar
    21    19    20   ar
    22    20    21    1
    23    20    22   ar
    24    22    23   ar
    25    23    17   ar
    26     2    24   am
    27    24    25    1
    28    25    26    1
    29    26    27    1
    30    27    25    1
    31     3    28    1
    32     3    29    1
    33     8    30    1
    34    11    31    1
    35    12    32    1
    36    18    33    1
    37    19    34    1
    38    22    35    1
    39    23    36    1
    40    24    37    1
    41    25    38    1
    42    26    39    1
    43    26    40    1
    44    27    41    1
    45    27    42    1
