@<TRIPOS>MOLECULE
*****
 42 45 0 0 0
SMALL
USER_CHARGES

@<TRIPOS>ATOM
      1 O1          0.6731    2.1428   -1.0400 O.2     1  LIG1        0.0000
      2 C2          1.2925    1.2925   -0.4626 C.2     1  LIG1        0.0000
      3 C3          1.0000    1.0000    1.0000 C.3     1  LIG1        0.0000
      4 S4          2.0450    2.0450    2.0450 S.3     1  LIG1        0.0000
      5 C5          2.9575    0.8776    2.9575 C.2     1  LIG1        0.0000
      6 N6          4.1091    0.4562    2.4646 N.2     1  LIG1        0.0000
      7 C7          4.8816   -0.4622    3.1275 C.3     1  LIG1        0.0000
      8 C8          6.0920   -0.8952    2.5938 C.3     1  LIG1        0.0000
      9 C9          6.8624   -1.8275    3.2826 C.3     1  LIG1        0.0000
     10 Cl10        8.4133   -2.4001    2.6253 Cl      1  LIG1        0.0000
     11 C11         6.4520   -2.3450    4.5049 C.3     1  LIG1        0.0000
     12 C12         5.2410   -1.9040    5.0253 C.3     1  LIG1        0.0000
     13 C13         4.4573   -0.9729    4.3510 C.3     1  LIG1        0.0000
     14 C14         3.2174   -0.5159    4.8771 C.2     1  LIG1        0.0000
     15 O15         2.7739   -0.9152    5.9451 O.2     1  LIG1        0.0000
     16 N16         2.4969    0.4037    4.1598 N.am    1  LIG1        0.0000
     17 C17         1.2748    0.8588    4.6695 C.3     1  LIG1        0.0000
     18 C18         1.2489    1.9792    5.4937 C.3     1  LIG1        0.0000
     19 C19         0.0395    2.4380    6.0054 C.3     1  LIG1        0.0000
     20 C20        -1.1335    1.7634    5.6825 C.3     1  LIG1        0.0000
     21 Cl21       -2.6846    2.3448    6.3334 Cl      1  LIG1        0.0000
     22 C22        -1.1168    0.6416    4.8598 C.3     1  LIG1        0.0000
     23 C23         0.0973    0.1898    4.3529 C.3     1  LIG1        0.0000
     24 N24         2.2633    0.5854   -1.1218 N.am    1  LIG1        0.0000
     25 C25         2.5457    0.8678   -2.5337 C.3     1  LIG1        0.0000
     26 C26         3.9872    0.6666   -2.8798 C.3     1  LIG1        0.0000
     27 C27         2.9689   -0.3565   -3.2902 C.3     1  LIG1        0.0000
     28 H           0.0377    1.1925    1.1925 H       1  LIG1        0.0000
     29 H           1.1925    0.0377    1.1925 H       1  LIG1        0.0000
     30 H           6.4081   -0.5364    1.7155 H       1  LIG1        0.0000
     31 H           7.0106   -3.0140    4.9952 H       1  LIG1        0.0000
     32 H           4.9260   -2.2639    5.9035 H       1  LIG1        0.0000
     33 H           2.0995    2.4547    5.7183 H       1  LIG1        0.0000
     34 H           0.0136    3.2430    6.5982 H       1  LIG1        0.0000
     35 H          -1.9673    0.1658    4.6355 H       1  LIG1        0.0000
     36 H           0.1234   -0.6158    3.7611 H       1  LIG1        0.0000
     37 H           2.7795   -0.1232   -0.6406 H       1  LIG1        0.0000
     38 H           2.0234    1.5785   -3.0049 H       1  LIG1        0.0000
     39 H           4.6487    0.4530   -2.1609 H       1  LIG1        0.0000
     40 H           4.4208    1.2453   -3.5705 H       1  LIG1        0.0000
     41 H           2.7230   -0.4592   -4.2540 H       1  LIG1        0.0000
     42 H           2.9509   -1.2515   -2.8444 H       1  LIG1        0.0000
@<TRIPOS>BOND
     1     1     2    2
     2     2     3    1
     3     3     4    1
     4     4     5    1
     5     5     6    2
     6     6     7    1
     7     7     8   ar
     8     8     9   ar
     9     9    10    1
    10     9    11   ar
    11    11    12   ar
    12    12    13   ar
    13    13     7   ar
    14    13    14    1
    15    14    15    2
    16    14    16   am
    17    16     5    1
    18    16    17    1
    19    17    18   ar
    20    18    19   ar
    21    19    20   ar
    22    20    21    1
    23    20    22   ar
    24    22    23   ar
    25    23    17   ar
    26     2    24   am
    27    24    25    1
    28    25    26    1
    29    26    27    1
    30    27    25    1
    31     3    28    1
    32     3    29    1
    33     8    30    1
    34    11    31    1
    35    12    32    1
    36    18    33    1
    37    19    34    1
    38    22    35    1
    39    23    36    1
    40    24    37    1
    41    25    38    1
    42    26    39    1
    43    26    40    1
    44    27    41    1
    45    27    42    1
