@<TRIPOS>MOLECULE

  62   65
SMALL
USER_CHARGES
@<TRIPOS>ATOM
   1 C1          -7.5208     3.1476     2.1714 C.3          1    LIG   0.0000
   2 C2          -6.0008     3.1443     2.1729 C.3          1    LIG   0.0000
   3 C3          -5.4948     2.3201     1.0002 C.3          1    LIG   0.0000
   4 C4          -3.9755     2.3168     1.0018 C.ar         1    LIG   0.0000
   5 C5          -3.2846     3.3047     0.3084 C.ar         1    LIG   0.0000
   6 C6          -1.8936     3.3086     0.3052 C.ar         1    LIG   0.0000
   7 C7          -1.2097     2.3164     1.0000 C.ar         1    LIG   0.0000
   8 C8           0.2400     2.3164     1.0000 C.2          1    LIG   0.0000
   9 O9           0.8400     3.3556     1.0000 O.2          1    LIG   0.0000
  10 C10          1.0000     1.0000     1.0000 C.2          1    LIG   0.0000
  11 C11          0.3050    -0.2038     1.0000 C.1          1    LIG   0.0000
  12 N12         -0.2650    -1.1910     1.0000 N.1          1    LIG   0.0000
  13 C13          2.3217     1.0000     1.0000 C.2          1    LIG   0.0000
  14 S14          3.3274     2.4121     1.0477 S.3          1    LIG   0.0000
  15 C15          4.8445     1.5773     1.0288 C.2          1    LIG   0.0000
  16 C16          6.0501     2.1150     1.0516 C.2          1    LIG   0.0000
  17 C17          7.2234     1.2645     1.0291 C.2          1    LIG   0.0000
  18 C18          7.5642     0.2811     1.9830 C.2          1    LIG   0.0000
  19 N19          8.6951    -0.2491     1.5803 N.2          1    LIG   0.0000
  20 N20          9.0934     0.3141     0.4512 N.pl3        1    LIG   0.0000
  21 C21         10.2519    -0.0062    -0.2670 C.ar         1    LIG   0.0000
  22 C22         11.1007    -1.0024     0.2044 C.ar         1    LIG   0.0000
  23 C23         12.2497    -1.3135    -0.5150 C.ar         1    LIG   0.0000
  24 C24         12.5398    -0.6314    -1.6928 C.ar         1    LIG   0.0000
  25 C25         11.6852     0.3632    -2.1570 C.ar         1    LIG   0.0000
  26 C26         10.5341     0.6810    -1.4430 C.ar         1    LIG   0.0000
  27 C27          8.1953     1.2640     0.0737 C.2          1    LIG   0.0000
  28 C28          4.5243     0.1695     0.9817 C.2          1    LIG   0.0000
  29 O29          5.3797    -0.7012     0.9534 O.2          1    LIG   0.0000
  30 N30          3.1585    -0.1109     0.9642 N.am         1    LIG   0.0000
  31 C31          2.5980    -1.4682     0.9215 C.3          1    LIG   0.0000
  32 C32          2.4146    -1.8952    -0.5257 C.3          1    LIG   0.0000
  33 O33          1.5281    -0.9964    -1.1757 O.3          1    LIG   0.0000
  34 C34          1.2878    -1.3077    -2.5402 C.3          1    LIG   0.0000
  35 C35         -1.8928     1.3236     1.6955 C.ar         1    LIG   0.0000
  36 C36         -3.2834     1.3272     1.6933 C.ar         1    LIG   0.0000
  37 H           -7.8537     3.6898     2.9429 H            1    LIG   0.0000
  38 H           -7.8524     3.5461     1.3162 H            1    LIG   0.0000
  39 H           -7.8563     2.2092     2.2540 H            1    LIG   0.0000
  40 H           -5.6653     4.0827     2.0903 H            1    LIG   0.0000
  41 H           -5.6692     2.7458     3.0281 H            1    LIG   0.0000
  42 H           -5.8303     1.3817     1.0829 H            1    LIG   0.0000
  43 H           -5.8263     2.7186     0.1451 H            1    LIG   0.0000
  44 H           -3.7878     4.0121    -0.1879 H            1    LIG   0.0000
  45 H           -1.3910     4.0167    -0.1908 H            1    LIG   0.0000
  46 H            6.1536     3.1090     1.0844 H            1    LIG   0.0000
  47 H            7.0465     0.0369     2.8030 H            1    LIG   0.0000
  48 H           10.8871    -1.4895     1.0513 H            1    LIG   0.0000
  49 H           12.8675    -2.0276    -0.1859 H            1    LIG   0.0000
  50 H           13.3666    -0.8573    -2.2079 H            1    LIG   0.0000
  51 H           11.8982     0.8499    -3.0042 H            1    LIG   0.0000
  52 H            9.9165     1.3956    -1.7716 H            1    LIG   0.0000
  53 H            8.2395     1.8441    -0.7397 H            1    LIG   0.0000
  54 H            1.7129    -1.4781     1.3867 H            1    LIG   0.0000
  55 H            3.2224    -2.1012     1.3792 H            1    LIG   0.0000
  56 H            3.2997    -1.8853    -0.9910 H            1    LIG   0.0000
  57 H            2.0331    -2.8192    -0.5548 H            1    LIG   0.0000
  58 H            0.6581    -0.6355    -2.9296 H            1    LIG   0.0000
  59 H            2.1513    -1.2865    -3.0440 H            1    LIG   0.0000
  60 H            0.8847    -2.2204    -2.6079 H            1    LIG   0.0000
  61 H           -1.3896     0.6157     2.1912 H            1    LIG   0.0000
  62 H           -3.7861     0.6188     2.1887 H            1    LIG   0.0000
@<TRIPOS>BOND
   1        1        2 1
   2        2        3 1
   3        3        4 1
   4        4        5 ar
   5        5        6 ar
   6        6        7 ar
   7        7        8 1
   8        8        9 2
   9        8       10 1
  10       10       11 1
  11       11       12 3
  12       10       13 2
  13       13       14 1
  14       14       15 1
  15       15       16 2
  16       16       17 1
  17       17       18 1
  18       18       19 2
  19       19       20 1
  20       20       21 1
  21       21       22 ar
  22       22       23 ar
  23       23       24 ar
  24       24       25 ar
  25       25       26 ar
  26       26       21 ar
  27       20       27 1
  28       27       17 2
  29       15       28 1
  30       28       29 2
  31       28       30 am
  32       30       13 1
  33       30       31 1
  34       31       32 1
  35       32       33 1
  36       33       34 1
  37        7       35 ar
  38       35       36 ar
  39       36        4 ar
  40        1       37 1
  41        1       38 1
  42        1       39 1
  43        2       40 1
  44        2       41 1
  45        3       42 1
  46        3       43 1
  47        5       44 1
  48        6       45 1
  49       16       46 1
  50       18       47 1
  51       22       48 1
  52       23       49 1
  53       24       50 1
  54       25       51 1
  55       26       52 1
  56       27       53 1
  57       31       54 1
  58       31       55 1
  59       32       56 1
  60       32       57 1
  61       34       58 1
  62       34       59 1
  63       34       60 1
  64       35       61 1
  65       36       62 1

@<TRIPOS>MOLECULE

  62   65
SMALL
USER_CHARGES
@<TRIPOS>ATOM
   1 C1           2.1617     8.7378    -3.1671 C.3          1    LIG   0.0000
   2 C2           1.5565     7.5074    -2.5111 C.3          1    LIG   0.0000
   3 C3           2.5280     6.9521    -1.4825 C.3          1    LIG   0.0000
   4 C4           1.9231     5.7223    -0.8268 C.ar         1    LIG   0.0000
   5 C5           1.1491     5.8644     0.3199 C.ar         1    LIG   0.0000
   6 C6           0.5915     4.7434     0.9259 C.ar         1    LIG   0.0000
   7 C7           0.8192     3.4878     0.3722 C.ar         1    LIG   0.0000
   8 C8           0.2400     2.3164     1.0000 C.2          1    LIG   0.0000
   9 O9          -0.8394     2.3860     1.5196 O.2          1    LIG   0.0000
  10 C10          1.0000     1.0000     1.0000 C.2          1    LIG   0.0000
  11 C11          0.3050    -0.2038     1.0000 C.1          1    LIG   0.0000
  12 N12         -0.2650    -1.1910     1.0000 N.1          1    LIG   0.0000
  13 C13          2.3217     1.0000     1.0000 C.2          1    LIG   0.0000
  14 S14          3.3274     2.4121     1.0477 S.3          1    LIG   0.0000
  15 C15          4.8445     1.5773     1.0288 C.2          1    LIG   0.0000
  16 C16          6.0501     2.1150     1.0516 C.2          1    LIG   0.0000
  17 C17          7.2234     1.2645     1.0291 C.2          1    LIG   0.0000
  18 C18          7.5642     0.2811     1.9830 C.2          1    LIG   0.0000
  19 N19          8.6951    -0.2491     1.5803 N.2          1    LIG   0.0000
  20 N20          9.0934     0.3141     0.4512 N.pl3        1    LIG   0.0000
  21 C21         10.2519    -0.0062    -0.2670 C.ar         1    LIG   0.0000
  22 C22         11.1007    -1.0024     0.2044 C.ar         1    LIG   0.0000
  23 C23         12.2497    -1.3135    -0.5150 C.ar         1    LIG   0.0000
  24 C24         12.5398    -0.6314    -1.6928 C.ar         1    LIG   0.0000
  25 C25         11.6852     0.3632    -2.1570 C.ar         1    LIG   0.0000
  26 C26         10.5341     0.6810    -1.4430 C.ar         1    LIG   0.0000
  27 C27          8.1953     1.2640     0.0737 C.2          1    LIG   0.0000
  28 C28          4.5243     0.1695     0.9817 C.2          1    LIG   0.0000
  29 O29          5.3797    -0.7012     0.9534 O.2          1    LIG   0.0000
  30 N30          3.1585    -0.1109     0.9642 N.am         1    LIG   0.0000
  31 C31          2.5980    -1.4682     0.9215 C.3          1    LIG   0.0000
  32 C32          2.4146    -1.8952    -0.5257 C.3          1    LIG   0.0000
  33 O33          1.5281    -0.9964    -1.1757 O.3          1    LIG   0.0000
  34 C34          1.2878    -1.3077    -2.5402 C.3          1    LIG   0.0000
  35 C35          1.5931     3.3362    -0.7740 C.ar         1    LIG   0.0000
  36 C36          2.1467     4.4623    -1.3734 C.ar         1    LIG   0.0000
  37 H            1.5225     9.1032    -3.8439 H            1    LIG   0.0000
  38 H            2.3425     9.4321    -2.4705 H            1    LIG   0.0000
  39 H            3.0182     8.4876    -3.6186 H            1    LIG   0.0000
  40 H            0.7000     7.7577    -2.0597 H            1    LIG   0.0000
  41 H            1.3756     6.8132    -3.2077 H            1    LIG   0.0000
  42 H            3.3845     6.7019    -1.9339 H            1    LIG   0.0000
  43 H            2.7088     7.6464    -0.7859 H            1    LIG   0.0000
  44 H            0.9933     6.7725     0.7086 H            1    LIG   0.0000
  45 H            0.0334     4.8390     1.7501 H            1    LIG   0.0000
  46 H            6.1536     3.1090     1.0844 H            1    LIG   0.0000
  47 H            7.0465     0.0369     2.8030 H            1    LIG   0.0000
  48 H           10.8871    -1.4895     1.0513 H            1    LIG   0.0000
  49 H           12.8675    -2.0276    -0.1859 H            1    LIG   0.0000
  50 H           13.3666    -0.8573    -2.2079 H            1    LIG   0.0000
  51 H           11.8982     0.8499    -3.0042 H            1    LIG   0.0000
  52 H            9.9165     1.3956    -1.7716 H            1    LIG   0.0000
  53 H            8.2395     1.8441    -0.7397 H            1    LIG   0.0000
  54 H            1.7129    -1.4781     1.3867 H            1    LIG   0.0000
  55 H            3.2224    -2.1012     1.3792 H            1    LIG   0.0000
  56 H            3.2997    -1.8853    -0.9910 H            1    LIG   0.0000
  57 H            2.0331    -2.8192    -0.5548 H            1    LIG   0.0000
  58 H            0.6581    -0.6355    -2.9296 H            1    LIG   0.0000
  59 H            2.1513    -1.2865    -3.0440 H            1    LIG   0.0000
  60 H            0.8847    -2.2204    -2.6079 H            1    LIG   0.0000
  61 H            1.7494     2.4280    -1.1624 H            1    LIG   0.0000
  62 H            2.7055     4.3666    -2.1971 H            1    LIG   0.0000
@<TRIPOS>BOND
   1        1        2 1
   2        2        3 1
   3        3        4 1
   4        4        5 ar
   5        5        6 ar
   6        6        7 ar
   7        7        8 1
   8        8        9 2
   9        8       10 1
  10       10       11 1
  11       11       12 3
  12       10       13 2
  13       13       14 1
  14       14       15 1
  15       15       16 2
  16       16       17 1
  17       17       18 1
  18       18       19 2
  19       19       20 1
  20       20       21 1
  21       21       22 ar
  22       22       23 ar
  23       23       24 ar
  24       24       25 ar
  25       25       26 ar
  26       26       21 ar
  27       20       27 1
  28       27       17 2
  29       15       28 1
  30       28       29 2
  31       28       30 am
  32       30       13 1
  33       30       31 1
  34       31       32 1
  35       32       33 1
  36       33       34 1
  37        7       35 ar
  38       35       36 ar
  39       36        4 ar
  40        1       37 1
  41        1       38 1
  42        1       39 1
  43        2       40 1
  44        2       41 1
  45        3       42 1
  46        3       43 1
  47        5       44 1
  48        6       45 1
  49       16       46 1
  50       18       47 1
  51       22       48 1
  52       23       49 1
  53       24       50 1
  54       25       51 1
  55       26       52 1
  56       27       53 1
  57       31       54 1
  58       31       55 1
  59       32       56 1
  60       32       57 1
  61       34       58 1
  62       34       59 1
  63       34       60 1
  64       35       61 1
  65       36       62 1

@<TRIPOS>MOLECULE

  62   65
SMALL
USER_CHARGES
@<TRIPOS>ATOM
   1 C1           4.5120     8.4471     3.5412 C.3          1    LIG   0.0000
   2 C2           3.9057     7.2168     2.8859 C.3          1    LIG   0.0000
   3 C3           2.5319     6.9516     3.4798 C.3          1    LIG   0.0000
   4 C4           1.9258     5.7219     2.8249 C.ar         1    LIG   0.0000
   5 C5           1.1496     5.8644     1.6798 C.ar         1    LIG   0.0000
   6 C6           0.5915     4.7434     1.0741 C.ar         1    LIG   0.0000
   7 C7           0.8192     3.4878     1.6278 C.ar         1    LIG   0.0000
   8 C8           0.2400     2.3164     1.0000 C.2          1    LIG   0.0000
   9 O9          -0.8394     2.3860     0.4804 O.2          1    LIG   0.0000
  10 C10          1.0000     1.0000     1.0000 C.2          1    LIG   0.0000
  11 C11          0.3050    -0.2038     1.0000 C.1          1    LIG   0.0000
  12 N12         -0.2650    -1.1910     1.0000 N.1          1    LIG   0.0000
  13 C13          2.3217     1.0000     1.0000 C.2          1    LIG   0.0000
  14 S14          3.3274     2.4121     1.0477 S.3          1    LIG   0.0000
  15 C15          4.8445     1.5773     1.0288 C.2          1    LIG   0.0000
  16 C16          6.0501     2.1150     1.0516 C.2          1    LIG   0.0000
  17 C17          7.2234     1.2645     1.0291 C.2          1    LIG   0.0000
  18 C18          7.5642     0.2811     1.9830 C.2          1    LIG   0.0000
  19 N19          8.6951    -0.2491     1.5803 N.2          1    LIG   0.0000
  20 N20          9.0934     0.3141     0.4512 N.pl3        1    LIG   0.0000
  21 C21         10.2519    -0.0062    -0.2670 C.ar         1    LIG   0.0000
  22 C22         11.1007    -1.0024     0.2044 C.ar         1    LIG   0.0000
  23 C23         12.2497    -1.3135    -0.5150 C.ar         1    LIG   0.0000
  24 C24         12.5398    -0.6314    -1.6928 C.ar         1    LIG   0.0000
  25 C25         11.6852     0.3632    -2.1570 C.ar         1    LIG   0.0000
  26 C26         10.5341     0.6810    -1.4430 C.ar         1    LIG   0.0000
  27 C27          8.1953     1.2640     0.0737 C.2          1    LIG   0.0000
  28 C28          4.5243     0.1695     0.9817 C.2          1    LIG   0.0000
  29 O29          5.3797    -0.7012     0.9534 O.2          1    LIG   0.0000
  30 N30          3.1585    -0.1109     0.9642 N.am         1    LIG   0.0000
  31 C31          2.5980    -1.4682     0.9215 C.3          1    LIG   0.0000
  32 C32          2.4146    -1.8952    -0.5257 C.3          1    LIG   0.0000
  33 O33          1.5281    -0.9964    -1.1757 O.3          1    LIG   0.0000
  34 C34          1.2878    -1.3077    -2.5402 C.3          1    LIG   0.0000
  35 C35          1.5936     3.3361     2.7737 C.ar         1    LIG   0.0000
  36 C36          2.1476     4.4622     3.3727 C.ar         1    LIG   0.0000
  37 H            5.4158     8.6216     3.1505 H            1    LIG   0.0000
  38 H            3.9205     9.2369     3.3788 H            1    LIG   0.0000
  39 H            4.5985     8.2921     4.5253 H            1    LIG   0.0000
  40 H            3.8191     7.3718     1.9018 H            1    LIG   0.0000
  41 H            4.4971     6.4270     3.0483 H            1    LIG   0.0000
  42 H            2.6184     6.7966     4.4639 H            1    LIG   0.0000
  43 H            1.9404     7.7414     3.3175 H            1    LIG   0.0000
  44 H            0.9926     6.7726     1.2918 H            1    LIG   0.0000
  45 H            0.0330     4.8391     0.2501 H            1    LIG   0.0000
  46 H            6.1536     3.1090     1.0844 H            1    LIG   0.0000
  47 H            7.0465     0.0369     2.8030 H            1    LIG   0.0000
  48 H           10.8871    -1.4895     1.0513 H            1    LIG   0.0000
  49 H           12.8675    -2.0276    -0.1859 H            1    LIG   0.0000
  50 H           13.3666    -0.8573    -2.2079 H            1    LIG   0.0000
  51 H           11.8982     0.8499    -3.0042 H            1    LIG   0.0000
  52 H            9.9165     1.3956    -1.7716 H            1    LIG   0.0000
  53 H            8.2395     1.8441    -0.7397 H            1    LIG   0.0000
  54 H            1.7129    -1.4781     1.3867 H            1    LIG   0.0000
  55 H            3.2224    -2.1012     1.3792 H            1    LIG   0.0000
  56 H            3.2997    -1.8853    -0.9910 H            1    LIG   0.0000
  57 H            2.0331    -2.8192    -0.5548 H            1    LIG   0.0000
  58 H            0.6581    -0.6355    -2.9296 H            1    LIG   0.0000
  59 H            2.1513    -1.2865    -3.0440 H            1    LIG   0.0000
  60 H            0.8847    -2.2204    -2.6079 H            1    LIG   0.0000
  61 H            1.7499     2.4280     3.1620 H            1    LIG   0.0000
  62 H            2.7054     4.3666     4.1972 H            1    LIG   0.0000
@<TRIPOS>BOND
   1        1        2 1
   2        2        3 1
   3        3        4 1
   4        4        5 ar
   5        5        6 ar
   6        6        7 ar
   7        7        8 1
   8        8        9 2
   9        8       10 1
  10       10       11 1
  11       11       12 3
  12       10       13 2
  13       13       14 1
  14       14       15 1
  15       15       16 2
  16       16       17 1
  17       17       18 1
  18       18       19 2
  19       19       20 1
  20       20       21 1
  21       21       22 ar
  22       22       23 ar
  23       23       24 ar
  24       24       25 ar
  25       25       26 ar
  26       26       21 ar
  27       20       27 1
  28       27       17 2
  29       15       28 1
  30       28       29 2
  31       28       30 am
  32       30       13 1
  33       30       31 1
  34       31       32 1
  35       32       33 1
  36       33       34 1
  37        7       35 ar
  38       35       36 ar
  39       36        4 ar
  40        1       37 1
  41        1       38 1
  42        1       39 1
  43        2       40 1
  44        2       41 1
  45        3       42 1
  46        3       43 1
  47        5       44 1
  48        6       45 1
  49       16       46 1
  50       18       47 1
  51       22       48 1
  52       23       49 1
  53       24       50 1
  54       25       51 1
  55       26       52 1
  56       27       53 1
  57       31       54 1
  58       31       55 1
  59       32       56 1
  60       32       57 1
  61       34       58 1
  62       34       59 1
  63       34       60 1
  64       35       61 1
  65       36       62 1

@<TRIPOS>MOLECULE

  62   65
SMALL
USER_CHARGES
@<TRIPOS>ATOM
   1 C1          -7.5208     3.1476     2.1714 C.3          1    LIG   0.0000
   2 C2          -6.0008     3.1443     2.1729 C.3          1    LIG   0.0000
   3 C3          -5.4948     2.3201     1.0002 C.3          1    LIG   0.0000
   4 C4          -3.9755     2.3168     1.0018 C.ar         1    LIG   0.0000
   5 C5          -3.2846     3.3047     0.3084 C.ar         1    LIG   0.0000
   6 C6          -1.8936     3.3086     0.3052 C.ar         1    LIG   0.0000
   7 C7          -1.2097     2.3164     1.0000 C.ar         1    LIG   0.0000
   8 C8           0.2400     2.3164     1.0000 C.2          1    LIG   0.0000
   9 O9           0.8400     3.3556     1.0000 O.2          1    LIG   0.0000
  10 C10          1.0000     1.0000     1.0000 C.2          1    LIG   0.0000
  11 C11          0.3050    -0.2038     1.0000 C.1          1    LIG   0.0000
  12 N12         -0.2650    -1.1910     1.0000 N.1          1    LIG   0.0000
  13 C13          2.3217     1.0000     1.0000 C.2          1    LIG   0.0000
  14 S14          3.3274     2.4121     1.0477 S.3          1    LIG   0.0000
  15 C15          4.8445     1.5773     1.0288 C.2          1    LIG   0.0000
  16 C16          6.0501     2.1150     1.0516 C.2          1    LIG   0.0000
  17 C17          7.2234     1.2645     1.0291 C.2          1    LIG   0.0000
  18 C18          7.5729     0.3450     0.0164 C.2          1    LIG   0.0000
  19 N19          8.7022    -0.2080     0.3921 N.2          1    LIG   0.0000
  20 N20          9.0958     0.2883     1.5537 N.pl3        1    LIG   0.0000
  21 C21         10.2580    -0.0644     2.2506 C.ar         1    LIG   0.0000
  22 C22         11.1161    -1.0212     1.7184 C.ar         1    LIG   0.0000
  23 C23         12.2678    -1.3659     2.4178 C.ar         1    LIG   0.0000
  24 C24         12.5518    -0.7556     3.6358 C.ar         1    LIG   0.0000
  25 C25         11.6882     0.2005     4.1603 C.ar         1    LIG   0.0000
  26 C26         10.5336     0.5506     3.4675 C.ar         1    LIG   0.0000
  27 C27          8.1968     1.2156     1.9819 C.2          1    LIG   0.0000
  28 C28          4.5243     0.1695     0.9817 C.2          1    LIG   0.0000
  29 O29          5.3797    -0.7012     0.9534 O.2          1    LIG   0.0000
  30 N30          3.1585    -0.1109     0.9642 N.am         1    LIG   0.0000
  31 C31          2.5980    -1.4682     0.9215 C.3          1    LIG   0.0000
  32 C32          2.4146    -1.8952    -0.5257 C.3          1    LIG   0.0000
  33 O33          1.5281    -0.9964    -1.1757 O.3          1    LIG   0.0000
  34 C34          1.2878    -1.3077    -2.5402 C.3          1    LIG   0.0000
  35 C35         -1.8928     1.3236     1.6955 C.ar         1    LIG   0.0000
  36 C36         -3.2834     1.3272     1.6933 C.ar         1    LIG   0.0000
  37 H           -7.8537     3.6898     2.9429 H            1    LIG   0.0000
  38 H           -7.8524     3.5461     1.3162 H            1    LIG   0.0000
  39 H           -7.8563     2.2092     2.2540 H            1    LIG   0.0000
  40 H           -5.6653     4.0827     2.0903 H            1    LIG   0.0000
  41 H           -5.6692     2.7458     3.0281 H            1    LIG   0.0000
  42 H           -5.8303     1.3817     1.0829 H            1    LIG   0.0000
  43 H           -5.8263     2.7186     0.1451 H            1    LIG   0.0000
  44 H           -3.7878     4.0121    -0.1879 H            1    LIG   0.0000
  45 H           -1.3910     4.0167    -0.1908 H            1    LIG   0.0000
  46 H            6.1536     3.1090     1.0844 H            1    LIG   0.0000
  47 H            7.0613     0.1531    -0.8211 H            1    LIG   0.0000
  48 H           10.9072    -1.4563     0.8426 H            1    LIG   0.0000
  49 H           12.8921    -2.0526     2.0453 H            1    LIG   0.0000
  50 H           13.3807    -1.0055     4.1363 H            1    LIG   0.0000
  51 H           11.8973     0.6362     5.0358 H            1    LIG   0.0000
  52 H            9.9088     1.2367     3.8402 H            1    LIG   0.0000
  53 H            8.2412     1.7523     2.8245 H            1    LIG   0.0000
  54 H            1.7129    -1.4781     1.3867 H            1    LIG   0.0000
  55 H            3.2224    -2.1012     1.3792 H            1    LIG   0.0000
  56 H            3.2997    -1.8853    -0.9910 H            1    LIG   0.0000
  57 H            2.0331    -2.8192    -0.5548 H            1    LIG   0.0000
  58 H            0.6581    -0.6355    -2.9296 H            1    LIG   0.0000
  59 H            2.1513    -1.2865    -3.0440 H            1    LIG   0.0000
  60 H            0.8847    -2.2204    -2.6079 H            1    LIG   0.0000
  61 H           -1.3896     0.6157     2.1912 H            1    LIG   0.0000
  62 H           -3.7861     0.6188     2.1887 H            1    LIG   0.0000
@<TRIPOS>BOND
   1        1        2 1
   2        2        3 1
   3        3        4 1
   4        4        5 ar
   5        5        6 ar
   6        6        7 ar
   7        7        8 1
   8        8        9 2
   9        8       10 1
  10       10       11 1
  11       11       12 3
  12       10       13 2
  13       13       14 1
  14       14       15 1
  15       15       16 2
  16       16       17 1
  17       17       18 1
  18       18       19 2
  19       19       20 1
  20       20       21 1
  21       21       22 ar
  22       22       23 ar
  23       23       24 ar
  24       24       25 ar
  25       25       26 ar
  26       26       21 ar
  27       20       27 1
  28       27       17 2
  29       15       28 1
  30       28       29 2
  31       28       30 am
  32       30       13 1
  33       30       31 1
  34       31       32 1
  35       32       33 1
  36       33       34 1
  37        7       35 ar
  38       35       36 ar
  39       36        4 ar
  40        1       37 1
  41        1       38 1
  42        1       39 1
  43        2       40 1
  44        2       41 1
  45        3       42 1
  46        3       43 1
  47        5       44 1
  48        6       45 1
  49       16       46 1
  50       18       47 1
  51       22       48 1
  52       23       49 1
  53       24       50 1
  54       25       51 1
  55       26       52 1
  56       27       53 1
  57       31       54 1
  58       31       55 1
  59       32       56 1
  60       32       57 1
  61       34       58 1
  62       34       59 1
  63       34       60 1
  64       35       61 1
  65       36       62 1

@<TRIPOS>MOLECULE

  62   65
SMALL
USER_CHARGES
@<TRIPOS>ATOM
   1 C1          -4.4950     4.0706    -5.0660 C.3          1    LIG   0.0000
   2 C2          -3.3812     3.8324    -4.0595 C.3          1    LIG   0.0000
   3 C3          -3.9604     3.2052    -2.8019 C.3          1    LIG   0.0000
   4 C4          -2.8471     2.9671    -1.7958 C.ar         1    LIG   0.0000
   5 C5          -2.5271     3.9600    -0.8760 C.ar         1    LIG   0.0000
   6 C6          -1.5093     3.7495     0.0485 C.ar         1    LIG   0.0000
   7 C7          -0.8213     2.5406     0.0382 C.ar         1    LIG   0.0000
   8 C8           0.2400     2.3164     1.0000 C.2          1    LIG   0.0000
   9 O9           0.5185     3.1700     1.7961 O.2          1    LIG   0.0000
  10 C10          1.0000     1.0000     1.0000 C.2          1    LIG   0.0000
  11 C11          0.3050    -0.2038     1.0000 C.1          1    LIG   0.0000
  12 N12         -0.2650    -1.1910     1.0000 N.1          1    LIG   0.0000
  13 C13          2.3217     1.0000     1.0000 C.2          1    LIG   0.0000
  14 S14          3.3274     2.4121     1.0477 S.3          1    LIG   0.0000
  15 C15          4.8445     1.5773     1.0288 C.2          1    LIG   0.0000
  16 C16          6.0501     2.1150     1.0516 C.2          1    LIG   0.0000
  17 C17          7.2234     1.2645     1.0291 C.2          1    LIG   0.0000
  18 C18          7.5729     0.3450     0.0164 C.2          1    LIG   0.0000
  19 N19          8.7022    -0.2080     0.3921 N.2          1    LIG   0.0000
  20 N20          9.0958     0.2883     1.5537 N.pl3        1    LIG   0.0000
  21 C21         10.2580    -0.0644     2.2506 C.ar         1    LIG   0.0000
  22 C22         11.1161    -1.0212     1.7184 C.ar         1    LIG   0.0000
  23 C23         12.2678    -1.3659     2.4178 C.ar         1    LIG   0.0000
  24 C24         12.5518    -0.7556     3.6358 C.ar         1    LIG   0.0000
  25 C25         11.6882     0.2005     4.1603 C.ar         1    LIG   0.0000
  26 C26         10.5336     0.5506     3.4675 C.ar         1    LIG   0.0000
  27 C27          8.1968     1.2156     1.9819 C.2          1    LIG   0.0000
  28 C28          4.5243     0.1695     0.9817 C.2          1    LIG   0.0000
  29 O29          5.3797    -0.7012     0.9534 O.2          1    LIG   0.0000
  30 N30          3.1585    -0.1109     0.9642 N.am         1    LIG   0.0000
  31 C31          2.5980    -1.4682     0.9215 C.3          1    LIG   0.0000
  32 C32          2.4146    -1.8952    -0.5257 C.3          1    LIG   0.0000
  33 O33          1.5281    -0.9964    -1.1757 O.3          1    LIG   0.0000
  34 C34          1.2878    -1.3077    -2.5402 C.3          1    LIG   0.0000
  35 C35         -1.1341     1.5423    -0.8790 C.ar         1    LIG   0.0000
  36 C36         -2.1530     1.7611    -1.7998 C.ar         1    LIG   0.0000
  37 H           -4.1140     4.4833    -5.8934 H            1    LIG   0.0000
  38 H           -4.9275     3.1991    -5.2970 H            1    LIG   0.0000
  39 H           -5.1763     4.6862    -4.6699 H            1    LIG   0.0000
  40 H           -2.6999     3.2169    -4.4556 H            1    LIG   0.0000
  41 H           -2.9487     4.7040    -3.8285 H            1    LIG   0.0000
  42 H           -4.6417     3.8208    -2.4057 H            1    LIG   0.0000
  43 H           -4.3929     2.3337    -3.0329 H            1    LIG   0.0000
  44 H           -3.0287     4.8251    -0.8793 H            1    LIG   0.0000
  45 H           -1.2750     4.4592     0.7129 H            1    LIG   0.0000
  46 H            6.1536     3.1090     1.0844 H            1    LIG   0.0000
  47 H            7.0613     0.1531    -0.8211 H            1    LIG   0.0000
  48 H           10.9072    -1.4563     0.8426 H            1    LIG   0.0000
  49 H           12.8921    -2.0526     2.0453 H            1    LIG   0.0000
  50 H           13.3807    -1.0055     4.1363 H            1    LIG   0.0000
  51 H           11.8973     0.6362     5.0358 H            1    LIG   0.0000
  52 H            9.9088     1.2367     3.8402 H            1    LIG   0.0000
  53 H            8.2412     1.7523     2.8245 H            1    LIG   0.0000
  54 H            1.7129    -1.4781     1.3867 H            1    LIG   0.0000
  55 H            3.2224    -2.1012     1.3792 H            1    LIG   0.0000
  56 H            3.2997    -1.8853    -0.9910 H            1    LIG   0.0000
  57 H            2.0331    -2.8192    -0.5548 H            1    LIG   0.0000
  58 H            0.6581    -0.6355    -2.9296 H            1    LIG   0.0000
  59 H            2.1513    -1.2865    -3.0440 H            1    LIG   0.0000
  60 H            0.8847    -2.2204    -2.6079 H            1    LIG   0.0000
  61 H           -0.6321     0.6774    -0.8762 H            1    LIG   0.0000
  62 H           -2.3869     1.0518    -2.4647 H            1    LIG   0.0000
@<TRIPOS>BOND
   1        1        2 1
   2        2        3 1
   3        3        4 1
   4        4        5 ar
   5        5        6 ar
   6        6        7 ar
   7        7        8 1
   8        8        9 2
   9        8       10 1
  10       10       11 1
  11       11       12 3
  12       10       13 2
  13       13       14 1
  14       14       15 1
  15       15       16 2
  16       16       17 1
  17       17       18 1
  18       18       19 2
  19       19       20 1
  20       20       21 1
  21       21       22 ar
  22       22       23 ar
  23       23       24 ar
  24       24       25 ar
  25       25       26 ar
  26       26       21 ar
  27       20       27 1
  28       27       17 2
  29       15       28 1
  30       28       29 2
  31       28       30 am
  32       30       13 1
  33       30       31 1
  34       31       32 1
  35       32       33 1
  36       33       34 1
  37        7       35 ar
  38       35       36 ar
  39       36        4 ar
  40        1       37 1
  41        1       38 1
  42        1       39 1
  43        2       40 1
  44        2       41 1
  45        3       42 1
  46        3       43 1
  47        5       44 1
  48        6       45 1
  49       16       46 1
  50       18       47 1
  51       22       48 1
  52       23       49 1
  53       24       50 1
  54       25       51 1
  55       26       52 1
  56       27       53 1
  57       31       54 1
  58       31       55 1
  59       32       56 1
  60       32       57 1
  61       34       58 1
  62       34       59 1
  63       34       60 1
  64       35       61 1
  65       36       62 1

@<TRIPOS>MOLECULE

  62   65
SMALL
USER_CHARGES
@<TRIPOS>ATOM
   1 C1           2.1617     8.7378    -3.1671 C.3          1    LIG   0.0000
   2 C2           1.5565     7.5074    -2.5111 C.3          1    LIG   0.0000
   3 C3           2.5280     6.9521    -1.4825 C.3          1    LIG   0.0000
   4 C4           1.9231     5.7223    -0.8268 C.ar         1    LIG   0.0000
   5 C5           1.1491     5.8644     0.3199 C.ar         1    LIG   0.0000
   6 C6           0.5915     4.7434     0.9259 C.ar         1    LIG   0.0000
   7 C7           0.8192     3.4878     0.3722 C.ar         1    LIG   0.0000
   8 C8           0.2400     2.3164     1.0000 C.2          1    LIG   0.0000
   9 O9          -0.8394     2.3860     1.5196 O.2          1    LIG   0.0000
  10 C10          1.0000     1.0000     1.0000 C.2          1    LIG   0.0000
  11 C11          0.3050    -0.2038     1.0000 C.1          1    LIG   0.0000
  12 N12         -0.2650    -1.1910     1.0000 N.1          1    LIG   0.0000
  13 C13          2.3217     1.0000     1.0000 C.2          1    LIG   0.0000
  14 S14          3.3274     2.4121     1.0477 S.3          1    LIG   0.0000
  15 C15          4.8445     1.5773     1.0288 C.2          1    LIG   0.0000
  16 C16          6.0501     2.1150     1.0516 C.2          1    LIG   0.0000
  17 C17          7.2234     1.2645     1.0291 C.2          1    LIG   0.0000
  18 C18          7.5729     0.3450     0.0164 C.2          1    LIG   0.0000
  19 N19          8.7022    -0.2080     0.3921 N.2          1    LIG   0.0000
  20 N20          9.0958     0.2883     1.5537 N.pl3        1    LIG   0.0000
  21 C21         10.2580    -0.0644     2.2506 C.ar         1    LIG   0.0000
  22 C22         11.1161    -1.0212     1.7184 C.ar         1    LIG   0.0000
  23 C23         12.2678    -1.3659     2.4178 C.ar         1    LIG   0.0000
  24 C24         12.5518    -0.7556     3.6358 C.ar         1    LIG   0.0000
  25 C25         11.6882     0.2005     4.1603 C.ar         1    LIG   0.0000
  26 C26         10.5336     0.5506     3.4675 C.ar         1    LIG   0.0000
  27 C27          8.1968     1.2156     1.9819 C.2          1    LIG   0.0000
  28 C28          4.5243     0.1695     0.9817 C.2          1    LIG   0.0000
  29 O29          5.3797    -0.7012     0.9534 O.2          1    LIG   0.0000
  30 N30          3.1585    -0.1109     0.9642 N.am         1    LIG   0.0000
  31 C31          2.5980    -1.4682     0.9215 C.3          1    LIG   0.0000
  32 C32          2.4146    -1.8952    -0.5257 C.3          1    LIG   0.0000
  33 O33          1.5281    -0.9964    -1.1757 O.3          1    LIG   0.0000
  34 C34          1.2878    -1.3077    -2.5402 C.3          1    LIG   0.0000
  35 C35          1.5931     3.3362    -0.7740 C.ar         1    LIG   0.0000
  36 C36          2.1467     4.4623    -1.3734 C.ar         1    LIG   0.0000
  37 H            1.5225     9.1032    -3.8439 H            1    LIG   0.0000
  38 H            2.3425     9.4321    -2.4705 H            1    LIG   0.0000
  39 H            3.0182     8.4876    -3.6186 H            1    LIG   0.0000
  40 H            0.7000     7.7577    -2.0597 H            1    LIG   0.0000
  41 H            1.3756     6.8132    -3.2077 H            1    LIG   0.0000
  42 H            3.3845     6.7019    -1.9339 H            1    LIG   0.0000
  43 H            2.7088     7.6464    -0.7859 H            1    LIG   0.0000
  44 H            0.9933     6.7725     0.7086 H            1    LIG   0.0000
  45 H            0.0334     4.8390     1.7501 H            1    LIG   0.0000
  46 H            6.1536     3.1090     1.0844 H            1    LIG   0.0000
  47 H            7.0613     0.1531    -0.8211 H            1    LIG   0.0000
  48 H           10.9072    -1.4563     0.8426 H            1    LIG   0.0000
  49 H           12.8921    -2.0526     2.0453 H            1    LIG   0.0000
  50 H           13.3807    -1.0055     4.1363 H            1    LIG   0.0000
  51 H           11.8973     0.6362     5.0358 H            1    LIG   0.0000
  52 H            9.9088     1.2367     3.8402 H            1    LIG   0.0000
  53 H            8.2412     1.7523     2.8245 H            1    LIG   0.0000
  54 H            1.7129    -1.4781     1.3867 H            1    LIG   0.0000
  55 H            3.2224    -2.1012     1.3792 H            1    LIG   0.0000
  56 H            3.2997    -1.8853    -0.9910 H            1    LIG   0.0000
  57 H            2.0331    -2.8192    -0.5548 H            1    LIG   0.0000
  58 H            0.6581    -0.6355    -2.9296 H            1    LIG   0.0000
  59 H            2.1513    -1.2865    -3.0440 H            1    LIG   0.0000
  60 H            0.8847    -2.2204    -2.6079 H            1    LIG   0.0000
  61 H            1.7494     2.4280    -1.1624 H            1    LIG   0.0000
  62 H            2.7055     4.3666    -2.1971 H            1    LIG   0.0000
@<TRIPOS>BOND
   1        1        2 1
   2        2        3 1
   3        3        4 1
   4        4        5 ar
   5        5        6 ar
   6        6        7 ar
   7        7        8 1
   8        8        9 2
   9        8       10 1
  10       10       11 1
  11       11       12 3
  12       10       13 2
  13       13       14 1
  14       14       15 1
  15       15       16 2
  16       16       17 1
  17       17       18 1
  18       18       19 2
  19       19       20 1
  20       20       21 1
  21       21       22 ar
  22       22       23 ar
  23       23       24 ar
  24       24       25 ar
  25       25       26 ar
  26       26       21 ar
  27       20       27 1
  28       27       17 2
  29       15       28 1
  30       28       29 2
  31       28       30 am
  32       30       13 1
  33       30       31 1
  34       31       32 1
  35       32       33 1
  36       33       34 1
  37        7       35 ar
  38       35       36 ar
  39       36        4 ar
  40        1       37 1
  41        1       38 1
  42        1       39 1
  43        2       40 1
  44        2       41 1
  45        3       42 1
  46        3       43 1
  47        5       44 1
  48        6       45 1
  49       16       46 1
  50       18       47 1
  51       22       48 1
  52       23       49 1
  53       24       50 1
  54       25       51 1
  55       26       52 1
  56       27       53 1
  57       31       54 1
  58       31       55 1
  59       32       56 1
  60       32       57 1
  61       34       58 1
  62       34       59 1
  63       34       60 1
  64       35       61 1
  65       36       62 1

@<TRIPOS>MOLECULE

  62   65
SMALL
USER_CHARGES
@<TRIPOS>ATOM
   1 C1           4.5120     8.4471     3.5412 C.3          1    LIG   0.0000
   2 C2           3.9057     7.2168     2.8859 C.3          1    LIG   0.0000
   3 C3           2.5319     6.9516     3.4798 C.3          1    LIG   0.0000
   4 C4           1.9258     5.7219     2.8249 C.ar         1    LIG   0.0000
   5 C5           1.1496     5.8644     1.6798 C.ar         1    LIG   0.0000
   6 C6           0.5915     4.7434     1.0741 C.ar         1    LIG   0.0000
   7 C7           0.8192     3.4878     1.6278 C.ar         1    LIG   0.0000
   8 C8           0.2400     2.3164     1.0000 C.2          1    LIG   0.0000
   9 O9          -0.8394     2.3860     0.4804 O.2          1    LIG   0.0000
  10 C10          1.0000     1.0000     1.0000 C.2          1    LIG   0.0000
  11 C11          0.3050    -0.2038     1.0000 C.1          1    LIG   0.0000
  12 N12         -0.2650    -1.1910     1.0000 N.1          1    LIG   0.0000
  13 C13          2.3217     1.0000     1.0000 C.2          1    LIG   0.0000
  14 S14          3.3274     2.4121     1.0477 S.3          1    LIG   0.0000
  15 C15          4.8445     1.5773     1.0288 C.2          1    LIG   0.0000
  16 C16          6.0501     2.1150     1.0516 C.2          1    LIG   0.0000
  17 C17          7.2234     1.2645     1.0291 C.2          1    LIG   0.0000
  18 C18          7.5729     0.3450     0.0164 C.2          1    LIG   0.0000
  19 N19          8.7022    -0.2080     0.3921 N.2          1    LIG   0.0000
  20 N20          9.0958     0.2883     1.5537 N.pl3        1    LIG   0.0000
  21 C21         10.2580    -0.0644     2.2506 C.ar         1    LIG   0.0000
  22 C22         11.1161    -1.0212     1.7184 C.ar         1    LIG   0.0000
  23 C23         12.2678    -1.3659     2.4178 C.ar         1    LIG   0.0000
  24 C24         12.5518    -0.7556     3.6358 C.ar         1    LIG   0.0000
  25 C25         11.6882     0.2005     4.1603 C.ar         1    LIG   0.0000
  26 C26         10.5336     0.5506     3.4675 C.ar         1    LIG   0.0000
  27 C27          8.1968     1.2156     1.9819 C.2          1    LIG   0.0000
  28 C28          4.5243     0.1695     0.9817 C.2          1    LIG   0.0000
  29 O29          5.3797    -0.7012     0.9534 O.2          1    LIG   0.0000
  30 N30          3.1585    -0.1109     0.9642 N.am         1    LIG   0.0000
  31 C31          2.5980    -1.4682     0.9215 C.3          1    LIG   0.0000
  32 C32          2.4146    -1.8952    -0.5257 C.3          1    LIG   0.0000
  33 O33          1.5281    -0.9964    -1.1757 O.3          1    LIG   0.0000
  34 C34          1.2878    -1.3077    -2.5402 C.3          1    LIG   0.0000
  35 C35          1.5936     3.3361     2.7737 C.ar         1    LIG   0.0000
  36 C36          2.1476     4.4622     3.3727 C.ar         1    LIG   0.0000
  37 H            5.4158     8.6216     3.1505 H            1    LIG   0.0000
  38 H            3.9205     9.2369     3.3788 H            1    LIG   0.0000
  39 H            4.5985     8.2921     4.5253 H            1    LIG   0.0000
  40 H            3.8191     7.3718     1.9018 H            1    LIG   0.0000
  41 H            4.4971     6.4270     3.0483 H            1    LIG   0.0000
  42 H            2.6184     6.7966     4.4639 H            1    LIG   0.0000
  43 H            1.9404     7.7414     3.3175 H            1    LIG   0.0000
  44 H            0.9926     6.7726     1.2918 H            1    LIG   0.0000
  45 H            0.0330     4.8391     0.2501 H            1    LIG   0.0000
  46 H            6.1536     3.1090     1.0844 H            1    LIG   0.0000
  47 H            7.0613     0.1531    -0.8211 H            1    LIG   0.0000
  48 H           10.9072    -1.4563     0.8426 H            1    LIG   0.0000
  49 H           12.8921    -2.0526     2.0453 H            1    LIG   0.0000
  50 H           13.3807    -1.0055     4.1363 H            1    LIG   0.0000
  51 H           11.8973     0.6362     5.0358 H            1    LIG   0.0000
  52 H            9.9088     1.2367     3.8402 H            1    LIG   0.0000
  53 H            8.2412     1.7523     2.8245 H            1    LIG   0.0000
  54 H            1.7129    -1.4781     1.3867 H            1    LIG   0.0000
  55 H            3.2224    -2.1012     1.3792 H            1    LIG   0.0000
  56 H            3.2997    -1.8853    -0.9910 H            1    LIG   0.0000
  57 H            2.0331    -2.8192    -0.5548 H            1    LIG   0.0000
  58 H            0.6581    -0.6355    -2.9296 H            1    LIG   0.0000
  59 H            2.1513    -1.2865    -3.0440 H            1    LIG   0.0000
  60 H            0.8847    -2.2204    -2.6079 H            1    LIG   0.0000
  61 H            1.7499     2.4280     3.1620 H            1    LIG   0.0000
  62 H            2.7054     4.3666     4.1972 H            1    LIG   0.0000
@<TRIPOS>BOND
   1        1        2 1
   2        2        3 1
   3        3        4 1
   4        4        5 ar
   5        5        6 ar
   6        6        7 ar
   7        7        8 1
   8        8        9 2
   9        8       10 1
  10       10       11 1
  11       11       12 3
  12       10       13 2
  13       13       14 1
  14       14       15 1
  15       15       16 2
  16       16       17 1
  17       17       18 1
  18       18       19 2
  19       19       20 1
  20       20       21 1
  21       21       22 ar
  22       22       23 ar
  23       23       24 ar
  24       24       25 ar
  25       25       26 ar
  26       26       21 ar
  27       20       27 1
  28       27       17 2
  29       15       28 1
  30       28       29 2
  31       28       30 am
  32       30       13 1
  33       30       31 1
  34       31       32 1
  35       32       33 1
  36       33       34 1
  37        7       35 ar
  38       35       36 ar
  39       36        4 ar
  40        1       37 1
  41        1       38 1
  42        1       39 1
  43        2       40 1
  44        2       41 1
  45        3       42 1
  46        3       43 1
  47        5       44 1
  48        6       45 1
  49       16       46 1
  50       18       47 1
  51       22       48 1
  52       23       49 1
  53       24       50 1
  54       25       51 1
  55       26       52 1
  56       27       53 1
  57       31       54 1
  58       31       55 1
  59       32       56 1
  60       32       57 1
  61       34       58 1
  62       34       59 1
  63       34       60 1
  64       35       61 1
  65       36       62 1

@<TRIPOS>MOLECULE

  62   65
SMALL
USER_CHARGES
@<TRIPOS>ATOM
   1 C1           0.5309     6.9741     7.3650 C.3          1    LIG   0.0000
   2 C2           0.7142     6.1987     6.0706 C.3          1    LIG   0.0000
   3 C3          -0.4463     5.2340     5.8891 C.3          1    LIG   0.0000
   4 C4          -0.2631     4.4590     4.5953 C.ar         1    LIG   0.0000
   5 C5          -0.7949     4.9601     3.4120 C.ar         1    LIG   0.0000
   6 C6          -0.6311     4.2566     2.2232 C.ar         1    LIG   0.0000
   7 C7           0.0664     3.0531     2.2364 C.ar         1    LIG   0.0000
   8 C8           0.2400     2.3164     1.0000 C.2          1    LIG   0.0000
   9 O9          -0.2163     2.7457    -0.0234 O.2          1    LIG   0.0000
  10 C10          1.0000     1.0000     1.0000 C.2          1    LIG   0.0000
  11 C11          0.3050    -0.2038     1.0000 C.1          1    LIG   0.0000
  12 N12         -0.2650    -1.1910     1.0000 N.1          1    LIG   0.0000
  13 C13          2.3217     1.0000     1.0000 C.2          1    LIG   0.0000
  14 S14          3.3274     2.4121     1.0477 S.3          1    LIG   0.0000
  15 C15          4.8445     1.5773     1.0288 C.2          1    LIG   0.0000
  16 C16          6.0501     2.1150     1.0516 C.2          1    LIG   0.0000
  17 C17          7.2234     1.2645     1.0291 C.2          1    LIG   0.0000
  18 C18          8.2397     1.2641     0.0492 C.2          1    LIG   0.0000
  19 N19          9.1051     0.3473     0.4138 N.2          1    LIG   0.0000
  20 N20          8.7221    -0.2270     1.5425 N.pl3        1    LIG   0.0000
  21 C21          9.4045    -1.2411     2.2255 C.ar         1    LIG   0.0000
  22 C22         10.1835    -2.1471     1.5131 C.ar         1    LIG   0.0000
  23 C23         10.8573    -3.1517     2.1996 C.ar         1    LIG   0.0000
  24 C24         10.7486    -3.2426     3.5840 C.ar         1    LIG   0.0000
  25 C25          9.9676    -2.3322     4.2883 C.ar         1    LIG   0.0000
  26 C26          9.2898    -1.3246     3.6093 C.ar         1    LIG   0.0000
  27 C27          7.5499     0.3237     1.9597 C.2          1    LIG   0.0000
  28 C28          4.5243     0.1695     0.9817 C.2          1    LIG   0.0000
  29 O29          5.3797    -0.7012     0.9534 O.2          1    LIG   0.0000
  30 N30          3.1585    -0.1109     0.9642 N.am         1    LIG   0.0000
  31 C31          2.5980    -1.4682     0.9215 C.3          1    LIG   0.0000
  32 C32          2.4146    -1.8952    -0.5257 C.3          1    LIG   0.0000
  33 O33          1.5281    -0.9964    -1.1757 O.3          1    LIG   0.0000
  34 C34          1.2878    -1.3077    -2.5402 C.3          1    LIG   0.0000
  35 C35          0.6008     2.5439     3.4158 C.ar         1    LIG   0.0000
  36 C36          0.4324     3.2538     4.5997 C.ar         1    LIG   0.0000
  37 H            1.2945     7.6087     7.4844 H            1    LIG   0.0000
  38 H           -0.3264     7.4874     7.3276 H            1    LIG   0.0000
  39 H            0.5042     6.3362     8.1347 H            1    LIG   0.0000
  40 H            0.7410     6.8366     5.3009 H            1    LIG   0.0000
  41 H            1.5716     5.6854     6.1081 H            1    LIG   0.0000
  42 H           -0.4730     4.5962     6.6588 H            1    LIG   0.0000
  43 H           -1.3037     5.7474     5.8517 H            1    LIG   0.0000
  44 H           -1.2950     5.8260     3.4157 H            1    LIG   0.0000
  45 H           -1.0105     4.6119     1.3689 H            1    LIG   0.0000
  46 H            6.1536     3.1090     1.0844 H            1    LIG   0.0000
  47 H            8.2902     1.8469    -0.7618 H            1    LIG   0.0000
  48 H           10.2582    -2.0768     0.5184 H            1    LIG   0.0000
  49 H           11.4201    -3.8089     1.6982 H            1    LIG   0.0000
  50 H           11.2342    -3.9660     4.0748 H            1    LIG   0.0000
  51 H            9.8933    -2.4018     5.2831 H            1    LIG   0.0000
  52 H            8.7263    -0.6678     4.1104 H            1    LIG   0.0000
  53 H            7.0329     0.0864     2.7822 H            1    LIG   0.0000
  54 H            1.7129    -1.4781     1.3867 H            1    LIG   0.0000
  55 H            3.2224    -2.1012     1.3792 H            1    LIG   0.0000
  56 H            3.2997    -1.8853    -0.9910 H            1    LIG   0.0000
  57 H            2.0331    -2.8192    -0.5548 H            1    LIG   0.0000
  58 H            0.6581    -0.6355    -2.9296 H            1    LIG   0.0000
  59 H            2.1513    -1.2865    -3.0440 H            1    LIG   0.0000
  60 H            0.8847    -2.2204    -2.6079 H            1    LIG   0.0000
  61 H            1.1003     1.6776     3.4122 H            1    LIG   0.0000
  62 H            0.8110     2.8981     5.4542 H            1    LIG   0.0000
@<TRIPOS>BOND
   1        1        2 1
   2        2        3 1
   3        3        4 1
   4        4        5 ar
   5        5        6 ar
   6        6        7 ar
   7        7        8 1
   8        8        9 2
   9        8       10 1
  10       10       11 1
  11       11       12 3
  12       10       13 2
  13       13       14 1
  14       14       15 1
  15       15       16 2
  16       16       17 1
  17       17       18 1
  18       18       19 2
  19       19       20 1
  20       20       21 1
  21       21       22 ar
  22       22       23 ar
  23       23       24 ar
  24       24       25 ar
  25       25       26 ar
  26       26       21 ar
  27       20       27 1
  28       27       17 2
  29       15       28 1
  30       28       29 2
  31       28       30 am
  32       30       13 1
  33       30       31 1
  34       31       32 1
  35       32       33 1
  36       33       34 1
  37        7       35 ar
  38       35       36 ar
  39       36        4 ar
  40        1       37 1
  41        1       38 1
  42        1       39 1
  43        2       40 1
  44        2       41 1
  45        3       42 1
  46        3       43 1
  47        5       44 1
  48        6       45 1
  49       16       46 1
  50       18       47 1
  51       22       48 1
  52       23       49 1
  53       24       50 1
  54       25       51 1
  55       26       52 1
  56       27       53 1
  57       31       54 1
  58       31       55 1
  59       32       56 1
  60       32       57 1
  61       34       58 1
  62       34       59 1
  63       34       60 1
  64       35       61 1
  65       36       62 1

@<TRIPOS>MOLECULE

  62   65
SMALL
USER_CHARGES
@<TRIPOS>ATOM
   1 C1          -7.3433     0.6609     0.9916 C.3          1    LIG   0.0000
   2 C2          -6.0026     1.0200     1.6113 C.3          1    LIG   0.0000
   3 C3          -5.4948     2.3174     1.0036 C.3          1    LIG   0.0000
   4 C4          -3.9755     2.3148     1.0010 C.ar         1    LIG   0.0000
   5 C5          -3.2846     3.3043     1.6922 C.ar         1    LIG   0.0000
   6 C6          -1.8936     3.3086     1.6948 C.ar         1    LIG   0.0000
   7 C7          -1.2097     2.3164     1.0000 C.ar         1    LIG   0.0000
   8 C8           0.2400     2.3164     1.0000 C.2          1    LIG   0.0000
   9 O9           0.8400     3.3556     1.0000 O.2          1    LIG   0.0000
  10 C10          1.0000     1.0000     1.0000 C.2          1    LIG   0.0000
  11 C11          0.3050    -0.2038     1.0000 C.1          1    LIG   0.0000
  12 N12         -0.2650    -1.1910     1.0000 N.1          1    LIG   0.0000
  13 C13          2.3217     1.0000     1.0000 C.2          1    LIG   0.0000
  14 S14          3.3274     2.4121     1.0477 S.3          1    LIG   0.0000
  15 C15          4.8445     1.5773     1.0288 C.2          1    LIG   0.0000
  16 C16          6.0501     2.1150     1.0516 C.2          1    LIG   0.0000
  17 C17          7.2234     1.2645     1.0291 C.2          1    LIG   0.0000
  18 C18          8.2311     1.2002     2.0159 C.2          1    LIG   0.0000
  19 N19          9.0980     0.3062     1.6019 N.2          1    LIG   0.0000
  20 N20          8.7196    -0.2012     0.4400 N.pl3        1    LIG   0.0000
  21 C21          9.3985    -1.1830    -0.2921 C.ar         1    LIG   0.0000
  22 C22         10.5876    -1.7101     0.2009 C.ar         1    LIG   0.0000
  23 C23         11.2555    -2.6845    -0.5334 C.ar         1    LIG   0.0000
  24 C24         10.7333    -3.1221    -1.7468 C.ar         1    LIG   0.0000
  25 C25          9.5434    -2.5896    -2.2320 C.ar         1    LIG   0.0000
  26 C26          8.8692    -1.6141    -1.5042 C.ar         1    LIG   0.0000
  27 C27          7.5484     0.3721     0.0515 C.2          1    LIG   0.0000
  28 C28          4.5243     0.1695     0.9817 C.2          1    LIG   0.0000
  29 O29          5.3797    -0.7012     0.9534 O.2          1    LIG   0.0000
  30 N30          3.1585    -0.1109     0.9642 N.am         1    LIG   0.0000
  31 C31          2.5980    -1.4682     0.9215 C.3          1    LIG   0.0000
  32 C32          2.4146    -1.8952    -0.5257 C.3          1    LIG   0.0000
  33 O33          1.5281    -0.9964    -1.1757 O.3          1    LIG   0.0000
  34 C34          1.2878    -1.3077    -2.5402 C.3          1    LIG   0.0000
  35 C35         -1.8928     1.3233     0.3050 C.ar         1    LIG   0.0000
  36 C36         -3.2834     1.3266     0.3077 C.ar         1    LIG   0.0000
  37 H           -7.6774    -0.1926     1.3914 H            1    LIG   0.0000
  38 H           -8.0004     1.3929     1.1715 H            1    LIG   0.0000
  39 H           -7.2341     0.5463     0.0042 H            1    LIG   0.0000
  40 H           -6.1118     1.1347     2.5987 H            1    LIG   0.0000
  41 H           -5.3455     0.2880     1.4314 H            1    LIG   0.0000
  42 H           -5.8296     2.3994     0.0649 H            1    LIG   0.0000
  43 H           -5.8258     3.0908     1.5443 H            1    LIG   0.0000
  44 H           -3.7878     4.0126     2.1872 H            1    LIG   0.0000
  45 H           -1.3910     4.0169     2.1905 H            1    LIG   0.0000
  46 H            6.1536     3.1090     1.0844 H            1    LIG   0.0000
  47 H            8.2754     1.7308     2.8623 H            1    LIG   0.0000
  48 H           10.9581    -1.3921     1.0735 H            1    LIG   0.0000
  49 H           12.1114    -3.0706    -0.1892 H            1    LIG   0.0000
  50 H           11.2158    -3.8227    -2.2724 H            1    LIG   0.0000
  51 H            9.1723    -2.9080    -3.1043 H            1    LIG   0.0000
  52 H            8.0138    -1.2273    -1.8485 H            1    LIG   0.0000
  53 H            7.0311     0.1782    -0.7820 H            1    LIG   0.0000
  54 H            1.7129    -1.4781     1.3867 H            1    LIG   0.0000
  55 H            3.2224    -2.1012     1.3792 H            1    LIG   0.0000
  56 H            3.2997    -1.8853    -0.9910 H            1    LIG   0.0000
  57 H            2.0331    -2.8192    -0.5548 H            1    LIG   0.0000
  58 H            0.6581    -0.6355    -2.9296 H            1    LIG   0.0000
  59 H            2.1513    -1.2865    -3.0440 H            1    LIG   0.0000
  60 H            0.8847    -2.2204    -2.6079 H            1    LIG   0.0000
  61 H           -1.3896     0.6154    -0.1907 H            1    LIG   0.0000
  62 H           -3.7861     0.6188    -0.1887 H            1    LIG   0.0000
@<TRIPOS>BOND
   1        1        2 1
   2        2        3 1
   3        3        4 1
   4        4        5 ar
   5        5        6 ar
   6        6        7 ar
   7        7        8 1
   8        8        9 2
   9        8       10 1
  10       10       11 1
  11       11       12 3
  12       10       13 2
  13       13       14 1
  14       14       15 1
  15       15       16 2
  16       16       17 1
  17       17       18 1
  18       18       19 2
  19       19       20 1
  20       20       21 1
  21       21       22 ar
  22       22       23 ar
  23       23       24 ar
  24       24       25 ar
  25       25       26 ar
  26       26       21 ar
  27       20       27 1
  28       27       17 2
  29       15       28 1
  30       28       29 2
  31       28       30 am
  32       30       13 1
  33       30       31 1
  34       31       32 1
  35       32       33 1
  36       33       34 1
  37        7       35 ar
  38       35       36 ar
  39       36        4 ar
  40        1       37 1
  41        1       38 1
  42        1       39 1
  43        2       40 1
  44        2       41 1
  45        3       42 1
  46        3       43 1
  47        5       44 1
  48        6       45 1
  49       16       46 1
  50       18       47 1
  51       22       48 1
  52       23       49 1
  53       24       50 1
  54       25       51 1
  55       26       52 1
  56       27       53 1
  57       31       54 1
  58       31       55 1
  59       32       56 1
  60       32       57 1
  61       34       58 1
  62       34       59 1
  63       34       60 1
  64       35       61 1
  65       36       62 1

@<TRIPOS>MOLECULE

  62   65
SMALL
USER_CHARGES
@<TRIPOS>ATOM
   1 C1          -4.4901     4.0752     7.0684 C.3          1    LIG   0.0000
   2 C2          -3.3772     3.8365     6.0610 C.3          1    LIG   0.0000
   3 C3          -3.9573     3.2070     4.8049 C.3          1    LIG   0.0000
   4 C4          -2.8449     2.9684     3.7979 C.ar         1    LIG   0.0000
   5 C5          -2.5267     3.9602     2.8764 C.ar         1    LIG   0.0000
   6 C6          -1.5093     3.7495     1.9515 C.ar         1    LIG   0.0000
   7 C7          -0.8213     2.5406     1.9618 C.ar         1    LIG   0.0000
   8 C8           0.2400     2.3164     1.0000 C.2          1    LIG   0.0000
   9 O9           0.5185     3.1700     0.2039 O.2          1    LIG   0.0000
  10 C10          1.0000     1.0000     1.0000 C.2          1    LIG   0.0000
  11 C11          0.3050    -0.2038     1.0000 C.1          1    LIG   0.0000
  12 N12         -0.2650    -1.1910     1.0000 N.1          1    LIG   0.0000
  13 C13          2.3217     1.0000     1.0000 C.2          1    LIG   0.0000
  14 S14          3.3274     2.4121     1.0477 S.3          1    LIG   0.0000
  15 C15          4.8445     1.5773     1.0288 C.2          1    LIG   0.0000
  16 C16          6.0501     2.1150     1.0516 C.2          1    LIG   0.0000
  17 C17          7.2234     1.2645     1.0291 C.2          1    LIG   0.0000
  18 C18          8.2311     1.2002     2.0159 C.2          1    LIG   0.0000
  19 N19          9.0980     0.3062     1.6019 N.2          1    LIG   0.0000
  20 N20          8.7196    -0.2012     0.4400 N.pl3        1    LIG   0.0000
  21 C21          9.3985    -1.1830    -0.2921 C.ar         1    LIG   0.0000
  22 C22         10.5876    -1.7101     0.2009 C.ar         1    LIG   0.0000
  23 C23         11.2555    -2.6845    -0.5334 C.ar         1    LIG   0.0000
  24 C24         10.7333    -3.1221    -1.7468 C.ar         1    LIG   0.0000
  25 C25          9.5434    -2.5896    -2.2320 C.ar         1    LIG   0.0000
  26 C26          8.8692    -1.6141    -1.5042 C.ar         1    LIG   0.0000
  27 C27          7.5484     0.3721     0.0515 C.2          1    LIG   0.0000
  28 C28          4.5243     0.1695     0.9817 C.2          1    LIG   0.0000
  29 O29          5.3797    -0.7012     0.9534 O.2          1    LIG   0.0000
  30 N30          3.1585    -0.1109     0.9642 N.am         1    LIG   0.0000
  31 C31          2.5980    -1.4682     0.9215 C.3          1    LIG   0.0000
  32 C32          2.4146    -1.8952    -0.5257 C.3          1    LIG   0.0000
  33 O33          1.5281    -0.9964    -1.1757 O.3          1    LIG   0.0000
  34 C34          1.2878    -1.3077    -2.5402 C.3          1    LIG   0.0000
  35 C35         -1.1337     1.5425     2.8794 C.ar         1    LIG   0.0000
  36 C36         -2.1522     1.7615     3.8005 C.ar         1    LIG   0.0000
  37 H           -4.1085     4.4893     7.8948 H            1    LIG   0.0000
  38 H           -5.1723     4.6896     6.6721 H            1    LIG   0.0000
  39 H           -4.9217     3.2036     7.3011 H            1    LIG   0.0000
  40 H           -2.9457     4.7081     5.8283 H            1    LIG   0.0000
  41 H           -2.6950     3.2221     6.4572 H            1    LIG   0.0000
  42 H           -4.3888     2.3354     5.0376 H            1    LIG   0.0000
  43 H           -4.6395     3.8214     4.4086 H            1    LIG   0.0000
  44 H           -3.0292     4.8248     2.8788 H            1    LIG   0.0000
  45 H           -1.2753     4.4590     1.2868 H            1    LIG   0.0000
  46 H            6.1536     3.1090     1.0844 H            1    LIG   0.0000
  47 H            8.2754     1.7308     2.8623 H            1    LIG   0.0000
  48 H           10.9581    -1.3921     1.0735 H            1    LIG   0.0000
  49 H           12.1114    -3.0706    -0.1892 H            1    LIG   0.0000
  50 H           11.2158    -3.8227    -2.2724 H            1    LIG   0.0000
  51 H            9.1723    -2.9080    -3.1043 H            1    LIG   0.0000
  52 H            8.0138    -1.2273    -1.8485 H            1    LIG   0.0000
  53 H            7.0311     0.1782    -0.7820 H            1    LIG   0.0000
  54 H            1.7129    -1.4781     1.3867 H            1    LIG   0.0000
  55 H            3.2224    -2.1012     1.3792 H            1    LIG   0.0000
  56 H            3.2997    -1.8853    -0.9910 H            1    LIG   0.0000
  57 H            2.0331    -2.8192    -0.5548 H            1    LIG   0.0000
  58 H            0.6581    -0.6355    -2.9296 H            1    LIG   0.0000
  59 H            2.1513    -1.2865    -3.0440 H            1    LIG   0.0000
  60 H            0.8847    -2.2204    -2.6079 H            1    LIG   0.0000
  61 H           -0.6317     0.6777     2.8766 H            1    LIG   0.0000
  62 H           -2.3869     1.0518     4.4647 H            1    LIG   0.0000
@<TRIPOS>BOND
   1        1        2 1
   2        2        3 1
   3        3        4 1
   4        4        5 ar
   5        5        6 ar
   6        6        7 ar
   7        7        8 1
   8        8        9 2
   9        8       10 1
  10       10       11 1
  11       11       12 3
  12       10       13 2
  13       13       14 1
  14       14       15 1
  15       15       16 2
  16       16       17 1
  17       17       18 1
  18       18       19 2
  19       19       20 1
  20       20       21 1
  21       21       22 ar
  22       22       23 ar
  23       23       24 ar
  24       24       25 ar
  25       25       26 ar
  26       26       21 ar
  27       20       27 1
  28       27       17 2
  29       15       28 1
  30       28       29 2
  31       28       30 am
  32       30       13 1
  33       30       31 1
  34       31       32 1
  35       32       33 1
  36       33       34 1
  37        7       35 ar
  38       35       36 ar
  39       36        4 ar
  40        1       37 1
  41        1       38 1
  42        1       39 1
  43        2       40 1
  44        2       41 1
  45        3       42 1
  46        3       43 1
  47        5       44 1
  48        6       45 1
  49       16       46 1
  50       18       47 1
  51       22       48 1
  52       23       49 1
  53       24       50 1
  54       25       51 1
  55       26       52 1
  56       27       53 1
  57       31       54 1
  58       31       55 1
  59       32       56 1
  60       32       57 1
  61       34       58 1
  62       34       59 1
  63       34       60 1
  64       35       61 1
  65       36       62 1

@<TRIPOS>MOLECULE

  62   65
SMALL
USER_CHARGES
@<TRIPOS>ATOM
   1 C1          -4.4950     4.0706    -5.0660 C.3          1    LIG   0.0000
   2 C2          -3.3812     3.8324    -4.0595 C.3          1    LIG   0.0000
   3 C3          -3.9604     3.2052    -2.8019 C.3          1    LIG   0.0000
   4 C4          -2.8471     2.9671    -1.7958 C.ar         1    LIG   0.0000
   5 C5          -2.5271     3.9600    -0.8760 C.ar         1    LIG   0.0000
   6 C6          -1.5093     3.7495     0.0485 C.ar         1    LIG   0.0000
   7 C7          -0.8213     2.5406     0.0382 C.ar         1    LIG   0.0000
   8 C8           0.2400     2.3164     1.0000 C.2          1    LIG   0.0000
   9 O9           0.5185     3.1700     1.7961 O.2          1    LIG   0.0000
  10 C10          1.0000     1.0000     1.0000 C.2          1    LIG   0.0000
  11 C11          0.3050    -0.2038     1.0000 C.1          1    LIG   0.0000
  12 N12         -0.2650    -1.1910     1.0000 N.1          1    LIG   0.0000
  13 C13          2.3217     1.0000     1.0000 C.2          1    LIG   0.0000
  14 S14          3.3274     2.4121     1.0477 S.3          1    LIG   0.0000
  15 C15          4.8445     1.5773     1.0288 C.2          1    LIG   0.0000
  16 C16          6.0501     2.1150     1.0516 C.2          1    LIG   0.0000
  17 C17          7.2234     1.2645     1.0291 C.2          1    LIG   0.0000
  18 C18          8.2311     1.2002     2.0159 C.2          1    LIG   0.0000
  19 N19          9.0980     0.3062     1.6019 N.2          1    LIG   0.0000
  20 N20          8.7196    -0.2012     0.4400 N.pl3        1    LIG   0.0000
  21 C21          9.3985    -1.1830    -0.2921 C.ar         1    LIG   0.0000
  22 C22         10.5876    -1.7101     0.2009 C.ar         1    LIG   0.0000
  23 C23         11.2555    -2.6845    -0.5334 C.ar         1    LIG   0.0000
  24 C24         10.7333    -3.1221    -1.7468 C.ar         1    LIG   0.0000
  25 C25          9.5434    -2.5896    -2.2320 C.ar         1    LIG   0.0000
  26 C26          8.8692    -1.6141    -1.5042 C.ar         1    LIG   0.0000
  27 C27          7.5484     0.3721     0.0515 C.2          1    LIG   0.0000
  28 C28          4.5243     0.1695     0.9817 C.2          1    LIG   0.0000
  29 O29          5.3797    -0.7012     0.9534 O.2          1    LIG   0.0000
  30 N30          3.1585    -0.1109     0.9642 N.am         1    LIG   0.0000
  31 C31          2.5980    -1.4682     0.9215 C.3          1    LIG   0.0000
  32 C32          2.4146    -1.8952    -0.5257 C.3          1    LIG   0.0000
  33 O33          1.5281    -0.9964    -1.1757 O.3          1    LIG   0.0000
  34 C34          1.2878    -1.3077    -2.5402 C.3          1    LIG   0.0000
  35 C35         -1.1341     1.5423    -0.8790 C.ar         1    LIG   0.0000
  36 C36         -2.1530     1.7611    -1.7998 C.ar         1    LIG   0.0000
  37 H           -4.1140     4.4833    -5.8934 H            1    LIG   0.0000
  38 H           -4.9275     3.1991    -5.2970 H            1    LIG   0.0000
  39 H           -5.1763     4.6862    -4.6699 H            1    LIG   0.0000
  40 H           -2.6999     3.2169    -4.4556 H            1    LIG   0.0000
  41 H           -2.9487     4.7040    -3.8285 H            1    LIG   0.0000
  42 H           -4.6417     3.8208    -2.4057 H            1    LIG   0.0000
  43 H           -4.3929     2.3337    -3.0329 H            1    LIG   0.0000
  44 H           -3.0287     4.8251    -0.8793 H            1    LIG   0.0000
  45 H           -1.2750     4.4592     0.7129 H            1    LIG   0.0000
  46 H            6.1536     3.1090     1.0844 H            1    LIG   0.0000
  47 H            8.2754     1.7308     2.8623 H            1    LIG   0.0000
  48 H           10.9581    -1.3921     1.0735 H            1    LIG   0.0000
  49 H           12.1114    -3.0706    -0.1892 H            1    LIG   0.0000
  50 H           11.2158    -3.8227    -2.2724 H            1    LIG   0.0000
  51 H            9.1723    -2.9080    -3.1043 H            1    LIG   0.0000
  52 H            8.0138    -1.2273    -1.8485 H            1    LIG   0.0000
  53 H            7.0311     0.1782    -0.7820 H            1    LIG   0.0000
  54 H            1.7129    -1.4781     1.3867 H            1    LIG   0.0000
  55 H            3.2224    -2.1012     1.3792 H            1    LIG   0.0000
  56 H            3.2997    -1.8853    -0.9910 H            1    LIG   0.0000
  57 H            2.0331    -2.8192    -0.5548 H            1    LIG   0.0000
  58 H            0.6581    -0.6355    -2.9296 H            1    LIG   0.0000
  59 H            2.1513    -1.2865    -3.0440 H            1    LIG   0.0000
  60 H            0.8847    -2.2204    -2.6079 H            1    LIG   0.0000
  61 H           -0.6321     0.6774    -0.8762 H            1    LIG   0.0000
  62 H           -2.3869     1.0518    -2.4647 H            1    LIG   0.0000
@<TRIPOS>BOND
   1        1        2 1
   2        2        3 1
   3        3        4 1
   4        4        5 ar
   5        5        6 ar
   6        6        7 ar
   7        7        8 1
   8        8        9 2
   9        8       10 1
  10       10       11 1
  11       11       12 3
  12       10       13 2
  13       13       14 1
  14       14       15 1
  15       15       16 2
  16       16       17 1
  17       17       18 1
  18       18       19 2
  19       19       20 1
  20       20       21 1
  21       21       22 ar
  22       22       23 ar
  23       23       24 ar
  24       24       25 ar
  25       25       26 ar
  26       26       21 ar
  27       20       27 1
  28       27       17 2
  29       15       28 1
  30       28       29 2
  31       28       30 am
  32       30       13 1
  33       30       31 1
  34       31       32 1
  35       32       33 1
  36       33       34 1
  37        7       35 ar
  38       35       36 ar
  39       36        4 ar
  40        1       37 1
  41        1       38 1
  42        1       39 1
  43        2       40 1
  44        2       41 1
  45        3       42 1
  46        3       43 1
  47        5       44 1
  48        6       45 1
  49       16       46 1
  50       18       47 1
  51       22       48 1
  52       23       49 1
  53       24       50 1
  54       25       51 1
  55       26       52 1
  56       27       53 1
  57       31       54 1
  58       31       55 1
  59       32       56 1
  60       32       57 1
  61       34       58 1
  62       34       59 1
  63       34       60 1
  64       35       61 1
  65       36       62 1

@<TRIPOS>MOLECULE

  62   65
SMALL
USER_CHARGES
@<TRIPOS>ATOM
   1 C1           1.8381     8.5459     5.5753 C.3          1    LIG   0.0000
   2 C2           1.2850     7.3464     4.8231 C.3          1    LIG   0.0000
   3 C3           2.3305     6.8353     3.8454 C.3          1    LIG   0.0000
   4 C4           1.7776     5.6364     3.0936 C.ar         1    LIG   0.0000
   5 C5           1.0898     5.8299     1.9005 C.ar         1    LIG   0.0000
   6 C6           0.5809     4.7373     1.2061 C.ar         1    LIG   0.0000
   7 C7           0.7682     3.4583     1.7201 C.ar         1    LIG   0.0000
   8 C8           0.2400     2.3164     1.0000 C.2          1    LIG   0.0000
   9 O9          -0.7972     2.4103     0.4039 O.2          1    LIG   0.0000
  10 C10          1.0000     1.0000     1.0000 C.2          1    LIG   0.0000
  11 C11          0.3050    -0.2038     1.0000 C.1          1    LIG   0.0000
  12 N12         -0.2650    -1.1910     1.0000 N.1          1    LIG   0.0000
  13 C13          2.3217     1.0000     1.0000 C.2          1    LIG   0.0000
  14 S14          3.3274     2.4121     1.0477 S.3          1    LIG   0.0000
  15 C15          4.8445     1.5773     1.0288 C.2          1    LIG   0.0000
  16 C16          6.0501     2.1150     1.0516 C.2          1    LIG   0.0000
  17 C17          7.2234     1.2645     1.0291 C.2          1    LIG   0.0000
  18 C18          8.2311     1.2002     2.0159 C.2          1    LIG   0.0000
  19 N19          9.0980     0.3062     1.6019 N.2          1    LIG   0.0000
  20 N20          8.7196    -0.2012     0.4400 N.pl3        1    LIG   0.0000
  21 C21          9.3985    -1.1830    -0.2921 C.ar         1    LIG   0.0000
  22 C22         10.5876    -1.7101     0.2009 C.ar         1    LIG   0.0000
  23 C23         11.2555    -2.6845    -0.5334 C.ar         1    LIG   0.0000
  24 C24         10.7333    -3.1221    -1.7468 C.ar         1    LIG   0.0000
  25 C25          9.5434    -2.5896    -2.2320 C.ar         1    LIG   0.0000
  26 C26          8.8692    -1.6141    -1.5042 C.ar         1    LIG   0.0000
  27 C27          7.5484     0.3721     0.0515 C.2          1    LIG   0.0000
  28 C28          4.5243     0.1695     0.9817 C.2          1    LIG   0.0000
  29 O29          5.3797    -0.7012     0.9534 O.2          1    LIG   0.0000
  30 N30          3.1585    -0.1109     0.9642 N.am         1    LIG   0.0000
  31 C31          2.5980    -1.4682     0.9215 C.3          1    LIG   0.0000
  32 C32          2.4146    -1.8952    -0.5257 C.3          1    LIG   0.0000
  33 O33          1.5281    -0.9964    -1.1757 O.3          1    LIG   0.0000
  34 C34          1.2878    -1.3077    -2.5402 C.3          1    LIG   0.0000
  35 C35          1.4542     3.2556     2.9135 C.ar         1    LIG   0.0000
  36 C36          1.9596     4.3536     3.6012 C.ar         1    LIG   0.0000
  37 H            1.1502     8.8821     6.2185 H            1    LIG   0.0000
  38 H            2.6595     8.2749     6.0771 H            1    LIG   0.0000
  39 H            2.0684     9.2698     4.9250 H            1    LIG   0.0000
  40 H            1.0546     6.6225     5.4734 H            1    LIG   0.0000
  41 H            0.4635     7.6174     4.3213 H            1    LIG   0.0000
  42 H            2.5608     7.5593     3.1951 H            1    LIG   0.0000
  43 H            3.1519     6.5643     4.3472 H            1    LIG   0.0000
  44 H            0.9611     6.7544     1.5417 H            1    LIG   0.0000
  45 H            0.0861     4.8697     0.3473 H            1    LIG   0.0000
  46 H            6.1536     3.1090     1.0844 H            1    LIG   0.0000
  47 H            8.2754     1.7308     2.8623 H            1    LIG   0.0000
  48 H           10.9581    -1.3921     1.0735 H            1    LIG   0.0000
  49 H           12.1114    -3.0706    -0.1892 H            1    LIG   0.0000
  50 H           11.2158    -3.8227    -2.2724 H            1    LIG   0.0000
  51 H            9.1723    -2.9080    -3.1043 H            1    LIG   0.0000
  52 H            8.0138    -1.2273    -1.8485 H            1    LIG   0.0000
  53 H            7.0311     0.1782    -0.7820 H            1    LIG   0.0000
  54 H            1.7129    -1.4781     1.3867 H            1    LIG   0.0000
  55 H            3.2224    -2.1012     1.3792 H            1    LIG   0.0000
  56 H            3.2997    -1.8853    -0.9910 H            1    LIG   0.0000
  57 H            2.0331    -2.8192    -0.5548 H            1    LIG   0.0000
  58 H            0.6581    -0.6355    -2.9296 H            1    LIG   0.0000
  59 H            2.1513    -1.2865    -3.0440 H            1    LIG   0.0000
  60 H            0.8847    -2.2204    -2.6079 H            1    LIG   0.0000
  61 H            1.5822     2.3312     3.2726 H            1    LIG   0.0000
  62 H            2.4537     4.2213     4.4604 H            1    LIG   0.0000
@<TRIPOS>BOND
   1        1        2 1
   2        2        3 1
   3        3        4 1
   4        4        5 ar
   5        5        6 ar
   6        6        7 ar
   7        7        8 1
   8        8        9 2
   9        8       10 1
  10       10       11 1
  11       11       12 3
  12       10       13 2
  13       13       14 1
  14       14       15 1
  15       15       16 2
  16       16       17 1
  17       17       18 1
  18       18       19 2
  19       19       20 1
  20       20       21 1
  21       21       22 ar
  22       22       23 ar
  23       23       24 ar
  24       24       25 ar
  25       25       26 ar
  26       26       21 ar
  27       20       27 1
  28       27       17 2
  29       15       28 1
  30       28       29 2
  31       28       30 am
  32       30       13 1
  33       30       31 1
  34       31       32 1
  35       32       33 1
  36       33       34 1
  37        7       35 ar
  38       35       36 ar
  39       36        4 ar
  40        1       37 1
  41        1       38 1
  42        1       39 1
  43        2       40 1
  44        2       41 1
  45        3       42 1
  46        3       43 1
  47        5       44 1
  48        6       45 1
  49       16       46 1
  50       18       47 1
  51       22       48 1
  52       23       49 1
  53       24       50 1
  54       25       51 1
  55       26       52 1
  56       27       53 1
  57       31       54 1
  58       31       55 1
  59       32       56 1
  60       32       57 1
  61       34       58 1
  62       34       59 1
  63       34       60 1
  64       35       61 1
  65       36       62 1

@<TRIPOS>MOLECULE

  62   65
SMALL
USER_CHARGES
@<TRIPOS>ATOM
   1 C1           0.2810     5.2528    -6.2635 C.3          1    LIG   0.0000
   2 C2          -0.0083     4.3668    -5.0629 C.3          1    LIG   0.0000
   3 C3          -0.4501     5.2290    -3.8916 C.3          1    LIG   0.0000
   4 C4          -0.2645     4.4572    -2.5962 C.ar         1    LIG   0.0000
   5 C5          -1.3643     4.2002    -1.7848 C.ar         1    LIG   0.0000
   6 C6          -1.2026     3.4939    -0.5974 C.ar         1    LIG   0.0000
   7 C7           0.0664     3.0531    -0.2364 C.ar         1    LIG   0.0000
   8 C8           0.2400     2.3164     1.0000 C.2          1    LIG   0.0000
   9 O9          -0.2163     2.7457     2.0234 O.2          1    LIG   0.0000
  10 C10          1.0000     1.0000     1.0000 C.2          1    LIG   0.0000
  11 C11          0.3050    -0.2038     1.0000 C.1          1    LIG   0.0000
  12 N12         -0.2650    -1.1910     1.0000 N.1          1    LIG   0.0000
  13 C13          2.3217     1.0000     1.0000 C.2          1    LIG   0.0000
  14 S14          3.3274     2.4121     1.0477 S.3          1    LIG   0.0000
  15 C15          4.8445     1.5773     1.0288 C.2          1    LIG   0.0000
  16 C16          6.0501     2.1150     1.0516 C.2          1    LIG   0.0000
  17 C17          7.2234     1.2645     1.0291 C.2          1    LIG   0.0000
  18 C18          8.2311     1.2002     2.0159 C.2          1    LIG   0.0000
  19 N19          9.0980     0.3062     1.6019 N.2          1    LIG   0.0000
  20 N20          8.7196    -0.2012     0.4400 N.pl3        1    LIG   0.0000
  21 C21          9.3985    -1.1830    -0.2921 C.ar         1    LIG   0.0000
  22 C22         10.5876    -1.7101     0.2009 C.ar         1    LIG   0.0000
  23 C23         11.2555    -2.6845    -0.5334 C.ar         1    LIG   0.0000
  24 C24         10.7333    -3.1221    -1.7468 C.ar         1    LIG   0.0000
  25 C25          9.5434    -2.5896    -2.2320 C.ar         1    LIG   0.0000
  26 C26          8.8692    -1.6141    -1.5042 C.ar         1    LIG   0.0000
  27 C27          7.5484     0.3721     0.0515 C.2          1    LIG   0.0000
  28 C28          4.5243     0.1695     0.9817 C.2          1    LIG   0.0000
  29 O29          5.3797    -0.7012     0.9534 O.2          1    LIG   0.0000
  30 N30          3.1585    -0.1109     0.9642 N.am         1    LIG   0.0000
  31 C31          2.5980    -1.4682     0.9215 C.3          1    LIG   0.0000
  32 C32          2.4146    -1.8952    -0.5257 C.3          1    LIG   0.0000
  33 O33          1.5281    -0.9964    -1.1757 O.3          1    LIG   0.0000
  34 C34          1.2878    -1.3077    -2.5402 C.3          1    LIG   0.0000
  35 C35          1.1724     3.3067    -1.0416 C.ar         1    LIG   0.0000
  36 C36          1.0017     4.0135    -2.2269 C.ar         1    LIG   0.0000
  37 H            0.5716     4.6856    -7.0341 H            1    LIG   0.0000
  38 H           -0.5462     5.7561    -6.5134 H            1    LIG   0.0000
  39 H            1.0079     5.8997    -6.0330 H            1    LIG   0.0000
  40 H           -0.7352     3.7199    -5.2934 H            1    LIG   0.0000
  41 H            0.8189     3.8635    -4.8129 H            1    LIG   0.0000
  42 H            0.1014     6.0628    -3.8648 H            1    LIG   0.0000
  43 H           -1.4144     5.4705    -4.0005 H            1    LIG   0.0000
  44 H           -2.2714     4.5230    -2.0550 H            1    LIG   0.0000
  45 H           -1.9896     3.3052    -0.0100 H            1    LIG   0.0000
  46 H            6.1536     3.1090     1.0844 H            1    LIG   0.0000
  47 H            8.2754     1.7308     2.8623 H            1    LIG   0.0000
  48 H           10.9581    -1.3921     1.0735 H            1    LIG   0.0000
  49 H           12.1114    -3.0706    -0.1892 H            1    LIG   0.0000
  50 H           11.2158    -3.8227    -2.2724 H            1    LIG   0.0000
  51 H            9.1723    -2.9080    -3.1043 H            1    LIG   0.0000
  52 H            8.0138    -1.2273    -1.8485 H            1    LIG   0.0000
  53 H            7.0311     0.1782    -0.7820 H            1    LIG   0.0000
  54 H            1.7129    -1.4781     1.3867 H            1    LIG   0.0000
  55 H            3.2224    -2.1012     1.3792 H            1    LIG   0.0000
  56 H            3.2997    -1.8853    -0.9910 H            1    LIG   0.0000
  57 H            2.0331    -2.8192    -0.5548 H            1    LIG   0.0000
  58 H            0.6581    -0.6355    -2.9296 H            1    LIG   0.0000
  59 H            2.1513    -1.2865    -3.0440 H            1    LIG   0.0000
  60 H            0.8847    -2.2204    -2.6079 H            1    LIG   0.0000
  61 H            2.0796     2.9844    -0.7710 H            1    LIG   0.0000
  62 H            1.7888     4.2029    -2.8140 H            1    LIG   0.0000
@<TRIPOS>BOND
   1        1        2 1
   2        2        3 1
   3        3        4 1
   4        4        5 ar
   5        5        6 ar
   6        6        7 ar
   7        7        8 1
   8        8        9 2
   9        8       10 1
  10       10       11 1
  11       11       12 3
  12       10       13 2
  13       13       14 1
  14       14       15 1
  15       15       16 2
  16       16       17 1
  17       17       18 1
  18       18       19 2
  19       19       20 1
  20       20       21 1
  21       21       22 ar
  22       22       23 ar
  23       23       24 ar
  24       24       25 ar
  25       25       26 ar
  26       26       21 ar
  27       20       27 1
  28       27       17 2
  29       15       28 1
  30       28       29 2
  31       28       30 am
  32       30       13 1
  33       30       31 1
  34       31       32 1
  35       32       33 1
  36       33       34 1
  37        7       35 ar
  38       35       36 ar
  39       36        4 ar
  40        1       37 1
  41        1       38 1
  42        1       39 1
  43        2       40 1
  44        2       41 1
  45        3       42 1
  46        3       43 1
  47        5       44 1
  48        6       45 1
  49       16       46 1
  50       18       47 1
  51       22       48 1
  52       23       49 1
  53       24       50 1
  54       25       51 1
  55       26       52 1
  56       27       53 1
  57       31       54 1
  58       31       55 1
  59       32       56 1
  60       32       57 1
  61       34       58 1
  62       34       59 1
  63       34       60 1
  64       35       61 1
  65       36       62 1

@<TRIPOS>MOLECULE

  62   65
SMALL
USER_CHARGES
@<TRIPOS>ATOM
   1 C1          -2.1842     6.6472     6.9623 C.3          1    LIG   0.0000
   2 C2          -1.4412     6.3632     5.6671 C.3          1    LIG   0.0000
   3 C3          -0.4493     5.2330     5.8893 C.3          1    LIG   0.0000
   4 C4          -0.2639     4.4601     4.5945 C.ar         1    LIG   0.0000
   5 C5          -1.3642     4.2007     3.7845 C.ar         1    LIG   0.0000
   6 C6          -1.2026     3.4939     2.5974 C.ar         1    LIG   0.0000
   7 C7           0.0664     3.0531     2.2364 C.ar         1    LIG   0.0000
   8 C8           0.2400     2.3164     1.0000 C.2          1    LIG   0.0000
   9 O9          -0.2163     2.7457    -0.0234 O.2          1    LIG   0.0000
  10 C10          1.0000     1.0000     1.0000 C.2          1    LIG   0.0000
  11 C11          0.3050    -0.2038     1.0000 C.1          1    LIG   0.0000
  12 N12         -0.2650    -1.1910     1.0000 N.1          1    LIG   0.0000
  13 C13          2.3217     1.0000     1.0000 C.2          1    LIG   0.0000
  14 S14          3.3274     2.4121     1.0477 S.3          1    LIG   0.0000
  15 C15          4.8445     1.5773     1.0288 C.2          1    LIG   0.0000
  16 C16          6.0501     2.1150     1.0516 C.2          1    LIG   0.0000
  17 C17          7.2234     1.2645     1.0291 C.2          1    LIG   0.0000
  18 C18          7.5642     0.2811     1.9830 C.2          1    LIG   0.0000
  19 N19          8.6951    -0.2491     1.5803 N.2          1    LIG   0.0000
  20 N20          9.0934     0.3141     0.4512 N.pl3        1    LIG   0.0000
  21 C21         10.2519    -0.0062    -0.2670 C.ar         1    LIG   0.0000
  22 C22         10.7539    -1.3027    -0.2210 C.ar         1    LIG   0.0000
  23 C23         11.9056    -1.6118    -0.9370 C.ar         1    LIG   0.0000
  24 C24         12.5428    -0.6293    -1.6889 C.ar         1    LIG   0.0000
  25 C25         12.0336     0.6646    -1.7293 C.ar         1    LIG   0.0000
  26 C26         10.8824     0.9823    -1.0156 C.ar         1    LIG   0.0000
  27 C27          8.1953     1.2640     0.0737 C.2          1    LIG   0.0000
  28 C28          4.5243     0.1695     0.9817 C.2          1    LIG   0.0000
  29 O29          5.3797    -0.7012     0.9534 O.2          1    LIG   0.0000
  30 N30          3.1585    -0.1109     0.9642 N.am         1    LIG   0.0000
  31 C31          2.5980    -1.4682     0.9215 C.3          1    LIG   0.0000
  32 C32          2.4146    -1.8952    -0.5257 C.3          1    LIG   0.0000
  33 O33          1.5281    -0.9964    -1.1757 O.3          1    LIG   0.0000
  34 C34          0.7686    -1.5880    -2.2196 C.3          1    LIG   0.0000
  35 C35          1.1725     3.3072     3.0413 C.ar         1    LIG   0.0000
  36 C36          1.0019     4.0145     4.2264 C.ar         1    LIG   0.0000
  37 H           -2.8368     7.3907     6.8162 H            1    LIG   0.0000
  38 H           -2.6747     5.8254     7.2523 H            1    LIG   0.0000
  39 H           -1.5300     6.9123     7.6707 H            1    LIG   0.0000
  40 H           -2.0954     6.0981     4.9588 H            1    LIG   0.0000
  41 H           -0.9507     7.1850     5.3771 H            1    LIG   0.0000
  42 H            0.4291     5.6127     6.1796 H            1    LIG   0.0000
  43 H           -0.7972     4.6186     6.5974 H            1    LIG   0.0000
  44 H           -2.2715     4.5223     4.0555 H            1    LIG   0.0000
  45 H           -1.9897     3.3048     2.0102 H            1    LIG   0.0000
  46 H            6.1536     3.1090     1.0844 H            1    LIG   0.0000
  47 H            7.0465     0.0369     2.8030 H            1    LIG   0.0000
  48 H           10.2918    -2.0048     0.3208 H            1    LIG   0.0000
  49 H           12.2759    -2.5403    -0.9114 H            1    LIG   0.0000
  50 H           13.3706    -0.8546    -2.2026 H            1    LIG   0.0000
  51 H           12.4952     1.3666    -2.2716 H            1    LIG   0.0000
  52 H           10.5123     1.9110    -1.0404 H            1    LIG   0.0000
  53 H            8.2395     1.8441    -0.7397 H            1    LIG   0.0000
  54 H            1.7129    -1.4781     1.3867 H            1    LIG   0.0000
  55 H            3.2224    -2.1012     1.3792 H            1    LIG   0.0000
  56 H            3.2997    -1.8853    -0.9910 H            1    LIG   0.0000
  57 H            2.0331    -2.8192    -0.5548 H            1    LIG   0.0000
  58 H            0.1705    -0.8987    -2.6285 H            1    LIG   0.0000
  59 H            1.3865    -1.9496    -2.9178 H            1    LIG   0.0000
  60 H            0.2139    -2.3323    -1.8477 H            1    LIG   0.0000
  61 H            2.0797     2.9849     2.7707 H            1    LIG   0.0000
  62 H            1.7888     4.2029     4.8140 H            1    LIG   0.0000
@<TRIPOS>BOND
   1        1        2 1
   2        2        3 1
   3        3        4 1
   4        4        5 ar
   5        5        6 ar
   6        6        7 ar
   7        7        8 1
   8        8        9 2
   9        8       10 1
  10       10       11 1
  11       11       12 3
  12       10       13 2
  13       13       14 1
  14       14       15 1
  15       15       16 2
  16       16       17 1
  17       17       18 1
  18       18       19 2
  19       19       20 1
  20       20       21 1
  21       21       22 ar
  22       22       23 ar
  23       23       24 ar
  24       24       25 ar
  25       25       26 ar
  26       26       21 ar
  27       20       27 1
  28       27       17 2
  29       15       28 1
  30       28       29 2
  31       28       30 am
  32       30       13 1
  33       30       31 1
  34       31       32 1
  35       32       33 1
  36       33       34 1
  37        7       35 ar
  38       35       36 ar
  39       36        4 ar
  40        1       37 1
  41        1       38 1
  42        1       39 1
  43        2       40 1
  44        2       41 1
  45        3       42 1
  46        3       43 1
  47        5       44 1
  48        6       45 1
  49       16       46 1
  50       18       47 1
  51       22       48 1
  52       23       49 1
  53       24       50 1
  54       25       51 1
  55       26       52 1
  56       27       53 1
  57       31       54 1
  58       31       55 1
  59       32       56 1
  60       32       57 1
  61       34       58 1
  62       34       59 1
  63       34       60 1
  64       35       61 1
  65       36       62 1

