@<TRIPOS>MOLECULE
*****
 62 65 0 0 0
SMALL
USER_CHARGES

@<TRIPOS>ATOM
      1 C1          2.1617    8.7378   -3.1671 C.3     1  LIG1        0.0000
      2 C2          1.5565    7.5074   -2.5111 C.3     1  LIG1        0.0000
      3 C3          2.5280    6.9521   -1.4825 C.3     1  LIG1        0.0000
      4 C4          1.9231    5.7223   -0.8268 C.3     1  LIG1        0.0000
      5 C5          1.1491    5.8644    0.3199 C.3     1  LIG1        0.0000
      6 C6          0.5915    4.7434    0.9259 C.3     1  LIG1        0.0000
      7 C7          0.8192    3.4878    0.3722 C.3     1  LIG1        0.0000
      8 C8          0.2400    2.3164    1.0000 C.2     1  LIG1        0.0000
      9 O9         -0.8394    2.3860    1.5196 O.2     1  LIG1        0.0000
     10 C10         1.0000    1.0000    1.0000 C.2     1  LIG1        0.0000
     11 C11         0.3050   -0.2038    1.0000 C.1     1  LIG1        0.0000
     12 N12        -0.2650   -1.1910    1.0000 N.1     1  LIG1        0.0000
     13 C13         2.3217    1.0000    1.0000 C.2     1  LIG1        0.0000
     14 S14         3.3274    2.4121    1.0477 S.3     1  LIG1        0.0000
     15 C15         4.8445    1.5773    1.0288 C.2     1  LIG1        0.0000
     16 C16         6.0501    2.1150    1.0516 C.2     1  LIG1        0.0000
     17 C17         7.2234    1.2645    1.0291 C.2     1  LIG1        0.0000
     18 C18         7.5729    0.3450    0.0164 C.2     1  LIG1        0.0000
     19 N19         8.7022   -0.2080    0.3921 N.2     1  LIG1        0.0000
     20 N20         9.0958    0.2883    1.5537 N.pl3   1  LIG1        0.0000
     21 C21        10.2580   -0.0644    2.2506 C.3     1  LIG1        0.0000
     22 C22        11.1161   -1.0212    1.7184 C.3     1  LIG1        0.0000
     23 C23        12.2678   -1.3659    2.4178 C.3     1  LIG1        0.0000
     24 C24        12.5518   -0.7556    3.6358 C.3     1  LIG1        0.0000
     25 C25        11.6882    0.2005    4.1603 C.3     1  LIG1        0.0000
     26 C26        10.5336    0.5506    3.4675 C.3     1  LIG1        0.0000
     27 C27         8.1968    1.2156    1.9819 C.2     1  LIG1        0.0000
     28 C28         4.5243    0.1695    0.9817 C.2     1  LIG1        0.0000
     29 O29         5.3797   -0.7012    0.9534 O.2     1  LIG1        0.0000
     30 N30         3.1585   -0.1109    0.9642 N.am    1  LIG1        0.0000
     31 C31         2.5980   -1.4682    0.9215 C.3     1  LIG1        0.0000
     32 C32         2.4146   -1.8952   -0.5257 C.3     1  LIG1        0.0000
     33 O33         1.5281   -0.9964   -1.1757 O.3     1  LIG1        0.0000
     34 C34         1.2878   -1.3077   -2.5402 C.3     1  LIG1        0.0000
     35 C35         1.5931    3.3362   -0.7740 C.3     1  LIG1        0.0000
     36 C36         2.1467    4.4623   -1.3734 C.3     1  LIG1        0.0000
     37 H           1.5225    9.1032   -3.8439 H       1  LIG1        0.0000
     38 H           2.3425    9.4321   -2.4705 H       1  LIG1        0.0000
     39 H           3.0182    8.4876   -3.6186 H       1  LIG1        0.0000
     40 H           0.7000    7.7577   -2.0597 H       1  LIG1        0.0000
     41 H           1.3756    6.8132   -3.2077 H       1  LIG1        0.0000
     42 H           3.3845    6.7019   -1.9339 H       1  LIG1        0.0000
     43 H           2.7088    7.6464   -0.7859 H       1  LIG1        0.0000
     44 H           0.9933    6.7725    0.7086 H       1  LIG1        0.0000
     45 H           0.0334    4.8390    1.7501 H       1  LIG1        0.0000
     46 H           6.1536    3.1090    1.0844 H       1  LIG1        0.0000
     47 H           7.0613    0.1531   -0.8211 H       1  LIG1        0.0000
     48 H          10.9072   -1.4563    0.8426 H       1  LIG1        0.0000
     49 H          12.8921   -2.0526    2.0453 H       1  LIG1        0.0000
     50 H          13.3807   -1.0055    4.1363 H       1  LIG1        0.0000
     51 H          11.8973    0.6362    5.0358 H       1  LIG1        0.0000
     52 H           9.9088    1.2367    3.8402 H       1  LIG1        0.0000
     53 H           8.2412    1.7523    2.8245 H       1  LIG1        0.0000
     54 H           1.7129   -1.4781    1.3867 H       1  LIG1        0.0000
     55 H           3.2224   -2.1012    1.3792 H       1  LIG1        0.0000
     56 H           3.2997   -1.8853   -0.9910 H       1  LIG1        0.0000
     57 H           2.0331   -2.8192   -0.5548 H       1  LIG1        0.0000
     58 H           0.6581   -0.6355   -2.9296 H       1  LIG1        0.0000
     59 H           2.1513   -1.2865   -3.0440 H       1  LIG1        0.0000
     60 H           0.8847   -2.2204   -2.6079 H       1  LIG1        0.0000
     61 H           1.7494    2.4280   -1.1624 H       1  LIG1        0.0000
     62 H           2.7055    4.3666   -2.1971 H       1  LIG1        0.0000
@<TRIPOS>BOND
     1     1     2    1
     2     2     3    1
     3     3     4    1
     4     4     5   ar
     5     5     6   ar
     6     6     7   ar
     7     7     8    1
     8     8     9    2
     9     8    10    1
    10    10    11    1
    11    11    12    3
    12    10    13    2
    13    13    14    1
    14    14    15    1
    15    15    16    2
    16    16    17    1
    17    17    18    1
    18    18    19    2
    19    19    20    1
    20    20    21    1
    21    21    22   ar
    22    22    23   ar
    23    23    24   ar
    24    24    25   ar
    25    25    26   ar
    26    26    21   ar
    27    20    27    1
    28    27    17    2
    29    15    28    1
    30    28    29    2
    31    28    30   am
    32    30    13    1
    33    30    31    1
    34    31    32    1
    35    32    33    1
    36    33    34    1
    37     7    35   ar
    38    35    36   ar
    39    36     4   ar
    40     1    37    1
    41     1    38    1
    42     1    39    1
    43     2    40    1
    44     2    41    1
    45     3    42    1
    46     3    43    1
    47     5    44    1
    48     6    45    1
    49    16    46    1
    50    18    47    1
    51    22    48    1
    52    23    49    1
    53    24    50    1
    54    25    51    1
    55    26    52    1
    56    27    53    1
    57    31    54    1
    58    31    55    1
    59    32    56    1
    60    32    57    1
    61    34    58    1
    62    34    59    1
    63    34    60    1
    64    35    61    1
    65    36    62    1
