@<TRIPOS>MOLECULE
*****
 62 65 0 0 0
SMALL
USER_CHARGES

@<TRIPOS>ATOM
      1 C1          0.5309    6.9741    7.3650 C.3     1  LIG1        0.0000
      2 C2          0.7142    6.1987    6.0706 C.3     1  LIG1        0.0000
      3 C3         -0.4463    5.2340    5.8891 C.3     1  LIG1        0.0000
      4 C4         -0.2631    4.4590    4.5953 C.3     1  LIG1        0.0000
      5 C5         -0.7949    4.9601    3.4120 C.3     1  LIG1        0.0000
      6 C6         -0.6311    4.2566    2.2232 C.3     1  LIG1        0.0000
      7 C7          0.0664    3.0531    2.2364 C.3     1  LIG1        0.0000
      8 C8          0.2400    2.3164    1.0000 C.2     1  LIG1        0.0000
      9 O9         -0.2163    2.7457   -0.0234 O.2     1  LIG1        0.0000
     10 C10         1.0000    1.0000    1.0000 C.2     1  LIG1        0.0000
     11 C11         0.3050   -0.2038    1.0000 C.1     1  LIG1        0.0000
     12 N12        -0.2650   -1.1910    1.0000 N.1     1  LIG1        0.0000
     13 C13         2.3217    1.0000    1.0000 C.2     1  LIG1        0.0000
     14 S14         3.3274    2.4121    1.0477 S.3     1  LIG1        0.0000
     15 C15         4.8445    1.5773    1.0288 C.2     1  LIG1        0.0000
     16 C16         6.0501    2.1150    1.0516 C.2     1  LIG1        0.0000
     17 C17         7.2234    1.2645    1.0291 C.2     1  LIG1        0.0000
     18 C18         8.2397    1.2641    0.0492 C.2     1  LIG1        0.0000
     19 N19         9.1051    0.3473    0.4138 N.2     1  LIG1        0.0000
     20 N20         8.7221   -0.2270    1.5425 N.pl3   1  LIG1        0.0000
     21 C21         9.4045   -1.2411    2.2255 C.3     1  LIG1        0.0000
     22 C22        10.1835   -2.1471    1.5131 C.3     1  LIG1        0.0000
     23 C23        10.8573   -3.1517    2.1996 C.3     1  LIG1        0.0000
     24 C24        10.7486   -3.2426    3.5840 C.3     1  LIG1        0.0000
     25 C25         9.9676   -2.3322    4.2883 C.3     1  LIG1        0.0000
     26 C26         9.2898   -1.3246    3.6093 C.3     1  LIG1        0.0000
     27 C27         7.5499    0.3237    1.9597 C.2     1  LIG1        0.0000
     28 C28         4.5243    0.1695    0.9817 C.2     1  LIG1        0.0000
     29 O29         5.3797   -0.7012    0.9534 O.2     1  LIG1        0.0000
     30 N30         3.1585   -0.1109    0.9642 N.am    1  LIG1        0.0000
     31 C31         2.5980   -1.4682    0.9215 C.3     1  LIG1        0.0000
     32 C32         2.4146   -1.8952   -0.5257 C.3     1  LIG1        0.0000
     33 O33         1.5281   -0.9964   -1.1757 O.3     1  LIG1        0.0000
     34 C34         1.2878   -1.3077   -2.5402 C.3     1  LIG1        0.0000
     35 C35         0.6008    2.5439    3.4158 C.3     1  LIG1        0.0000
     36 C36         0.4324    3.2538    4.5997 C.3     1  LIG1        0.0000
     37 H           1.2945    7.6087    7.4844 H       1  LIG1        0.0000
     38 H          -0.3264    7.4874    7.3276 H       1  LIG1        0.0000
     39 H           0.5042    6.3362    8.1347 H       1  LIG1        0.0000
     40 H           0.7410    6.8366    5.3009 H       1  LIG1        0.0000
     41 H           1.5716    5.6854    6.1081 H       1  LIG1        0.0000
     42 H          -0.4730    4.5962    6.6588 H       1  LIG1        0.0000
     43 H          -1.3037    5.7474    5.8517 H       1  LIG1        0.0000
     44 H          -1.2950    5.8260    3.4157 H       1  LIG1        0.0000
     45 H          -1.0105    4.6119    1.3689 H       1  LIG1        0.0000
     46 H           6.1536    3.1090    1.0844 H       1  LIG1        0.0000
     47 H           8.2902    1.8469   -0.7618 H       1  LIG1        0.0000
     48 H          10.2582   -2.0768    0.5184 H       1  LIG1        0.0000
     49 H          11.4201   -3.8089    1.6982 H       1  LIG1        0.0000
     50 H          11.2342   -3.9660    4.0748 H       1  LIG1        0.0000
     51 H           9.8933   -2.4018    5.2831 H       1  LIG1        0.0000
     52 H           8.7263   -0.6678    4.1104 H       1  LIG1        0.0000
     53 H           7.0329    0.0864    2.7822 H       1  LIG1        0.0000
     54 H           1.7129   -1.4781    1.3867 H       1  LIG1        0.0000
     55 H           3.2224   -2.1012    1.3792 H       1  LIG1        0.0000
     56 H           3.2997   -1.8853   -0.9910 H       1  LIG1        0.0000
     57 H           2.0331   -2.8192   -0.5548 H       1  LIG1        0.0000
     58 H           0.6581   -0.6355   -2.9296 H       1  LIG1        0.0000
     59 H           2.1513   -1.2865   -3.0440 H       1  LIG1        0.0000
     60 H           0.8847   -2.2204   -2.6079 H       1  LIG1        0.0000
     61 H           1.1003    1.6776    3.4122 H       1  LIG1        0.0000
     62 H           0.8110    2.8981    5.4542 H       1  LIG1        0.0000
@<TRIPOS>BOND
     1     1     2    1
     2     2     3    1
     3     3     4    1
     4     4     5   ar
     5     5     6   ar
     6     6     7   ar
     7     7     8    1
     8     8     9    2
     9     8    10    1
    10    10    11    1
    11    11    12    3
    12    10    13    2
    13    13    14    1
    14    14    15    1
    15    15    16    2
    16    16    17    1
    17    17    18    1
    18    18    19    2
    19    19    20    1
    20    20    21    1
    21    21    22   ar
    22    22    23   ar
    23    23    24   ar
    24    24    25   ar
    25    25    26   ar
    26    26    21   ar
    27    20    27    1
    28    27    17    2
    29    15    28    1
    30    28    29    2
    31    28    30   am
    32    30    13    1
    33    30    31    1
    34    31    32    1
    35    32    33    1
    36    33    34    1
    37     7    35   ar
    38    35    36   ar
    39    36     4   ar
    40     1    37    1
    41     1    38    1
    42     1    39    1
    43     2    40    1
    44     2    41    1
    45     3    42    1
    46     3    43    1
    47     5    44    1
    48     6    45    1
    49    16    46    1
    50    18    47    1
    51    22    48    1
    52    23    49    1
    53    24    50    1
    54    25    51    1
    55    26    52    1
    56    27    53    1
    57    31    54    1
    58    31    55    1
    59    32    56    1
    60    32    57    1
    61    34    58    1
    62    34    59    1
    63    34    60    1
    64    35    61    1
    65    36    62    1
