@<TRIPOS>MOLECULE

  54   58
SMALL
USER_CHARGES
@<TRIPOS>ATOM
   1 C1           0.6019     5.4009     3.0085 C.3          1    LIG   0.0000
   2 O2          -0.5197     4.7622     3.6006 O.3          1    LIG   0.0000
   3 C3          -0.9330     3.6314     2.9912 C.ar         1    LIG   0.0000
   4 C4          -0.2643     3.1725     1.8621 C.ar         1    LIG   0.0000
   5 C5          -0.7083     2.0054     1.2503 C.ar         1    LIG   0.0000
   6 C6           0.0151     1.4945     0.0152 C.3          1    LIG   0.0000
   7 C7           1.4697     1.9209    -0.0002 C.3          1    LIG   0.0000
   8 C8           2.0916     2.1501    -1.3713 C.2          1    LIG   0.0000
   9 O9           1.8177     3.0814    -2.1103 O.2          1    LIG   0.0000
  10 N10          3.0237     1.1541    -1.6564 N.am         1    LIG   0.0000
  11 C11          3.7662     1.0523    -2.8389 C.ar         1    LIG   0.0000
  12 C12          3.2567     0.3219    -3.9077 C.ar         1    LIG   0.0000
  13 C13          4.0033     0.2275    -5.0773 C.ar         1    LIG   0.0000
  14 C14          5.2413     0.8521    -5.1849 C.ar         1    LIG   0.0000
  15 C15          5.7313     1.5774    -4.1038 C.ar         1    LIG   0.0000
  16 C16          7.0836     2.2632    -4.2113 C.3          1    LIG   0.0000
  17 C17          5.0019     1.6847    -2.9245 C.ar         1    LIG   0.0000
  18 C18          3.1024     0.2765    -0.5759 C.2          1    LIG   0.0000
  19 O19          3.8340    -0.7031    -0.5318 O.2          1    LIG   0.0000
  20 C20          2.1801     0.7045     0.5484 C.3          1    LIG   0.0000
  21 O21          1.2056    -0.2851     0.8536 O.3          1    LIG   0.0000
  22 N22          0.0974     0.0375     0.1264 N.pl3        1    LIG   0.0000
  23 C23         -0.8227    -0.8650    -0.4211 C.ar         1    LIG   0.0000
  24 C24         -1.9108    -0.3858    -1.1430 C.ar         1    LIG   0.0000
  25 C25         -2.8201    -1.2894    -1.6826 C.ar         1    LIG   0.0000
  26 C26         -2.6361    -2.6564    -1.4983 C.ar         1    LIG   0.0000
  27 C27         -1.5448    -3.1268    -0.7752 C.ar         1    LIG   0.0000
  28 C28         -0.6309    -2.2297    -0.2315 C.ar         1    LIG   0.0000
  29 C29         -1.8000     1.3042     1.7524 C.ar         1    LIG   0.0000
  30 C30         -2.4651     1.7690     2.8822 C.ar         1    LIG   0.0000
  31 C31         -2.0244     2.9358     3.4981 C.ar         1    LIG   0.0000
  32 O32         -2.6642     3.3917     4.5947 O.3          1    LIG   0.0000
  33 H           -0.4549     1.7705    -0.8232 H            1    LIG   0.0000
  34 H            1.6138     2.7135     0.5921 H            1    LIG   0.0000
  35 H            2.7070     0.9428     1.3643 H            1    LIG   0.0000
  36 H            0.8300     6.2239     3.5288 H            1    LIG   0.0000
  37 H            1.3826     4.7760     3.0140 H            1    LIG   0.0000
  38 H            0.3830     5.6524     2.0658 H            1    LIG   0.0000
  39 H            0.5211     3.6722     1.4969 H            1    LIG   0.0000
  40 H            2.3668    -0.1286    -3.8361 H            1    LIG   0.0000
  41 H            3.6455    -0.2960    -5.8506 H            1    LIG   0.0000
  42 H            5.7726     0.7807    -6.0291 H            1    LIG   0.0000
  43 H            7.4743     2.0898    -5.1154 H            1    LIG   0.0000
  44 H            6.9692     3.2480    -4.0809 H            1    LIG   0.0000
  45 H            7.6969     1.9028    -3.5085 H            1    LIG   0.0000
  46 H            5.3600     2.2077    -2.1511 H            1    LIG   0.0000
  47 H           -2.0380     0.5976    -1.2725 H            1    LIG   0.0000
  48 H           -3.6064    -0.9567    -2.2033 H            1    LIG   0.0000
  49 H           -3.2915    -3.3037    -1.8875 H            1    LIG   0.0000
  50 H           -1.4171    -4.1102    -0.6461 H            1    LIG   0.0000
  51 H            0.1550    -2.5622     0.2899 H            1    LIG   0.0000
  52 H           -2.1064     0.4661     1.3012 H            1    LIG   0.0000
  53 H           -3.2510     1.2700     3.2474 H            1    LIG   0.0000
  54 H           -3.4495     2.8914     4.9596 H            1    LIG   0.0000
@<TRIPOS>BOND
   1        1        2 1
   2        2        3 1
   3        3        4 ar
   4        4        5 ar
   5        5        6 1
   6        6        7 1
   7        7        8 1
   8        8        9 2
   9        8       10 am
  10       10       11 1
  11       11       12 ar
  12       12       13 ar
  13       13       14 ar
  14       14       15 ar
  15       15       16 1
  16       15       17 ar
  17       17       11 ar
  18       10       18 am
  19       18       19 2
  20       18       20 1
  21       20        7 1
  22       20       21 1
  23       21       22 1
  24       22        6 1
  25       22       23 1
  26       23       24 ar
  27       24       25 ar
  28       25       26 ar
  29       26       27 ar
  30       27       28 ar
  31       28       23 ar
  32        5       29 ar
  33       29       30 ar
  34       30       31 ar
  35       31        3 ar
  36       31       32 1
  37        6       33 1
  38        7       34 1
  39       20       35 1
  40        1       36 1
  41        1       37 1
  42        1       38 1
  43        4       39 1
  44       12       40 1
  45       13       41 1
  46       14       42 1
  47       16       43 1
  48       16       44 1
  49       16       45 1
  50       17       46 1
  51       24       47 1
  52       25       48 1
  53       26       49 1
  54       27       50 1
  55       28       51 1
  56       29       52 1
  57       30       53 1
  58       32       54 1

@<TRIPOS>MOLECULE

  54   58
SMALL
USER_CHARGES
@<TRIPOS>ATOM
   1 C1           0.6019     5.4009     3.0085 C.3          1    LIG   0.0000
   2 O2          -0.5197     4.7622     3.6006 O.3          1    LIG   0.0000
   3 C3          -0.9330     3.6314     2.9912 C.ar         1    LIG   0.0000
   4 C4          -0.2643     3.1725     1.8621 C.ar         1    LIG   0.0000
   5 C5          -0.7083     2.0054     1.2503 C.ar         1    LIG   0.0000
   6 C6           0.0151     1.4945     0.0152 C.3          1    LIG   0.0000
   7 C7           1.4697     1.9209    -0.0002 C.3          1    LIG   0.0000
   8 C8           2.0916     2.1501    -1.3713 C.2          1    LIG   0.0000
   9 O9           1.8177     3.0814    -2.1103 O.2          1    LIG   0.0000
  10 N10          3.0237     1.1541    -1.6564 N.am         1    LIG   0.0000
  11 C11          3.7662     1.0523    -2.8389 C.ar         1    LIG   0.0000
  12 C12          5.0029     1.6831    -2.9284 C.ar         1    LIG   0.0000
  13 C13          5.7315     1.5753    -4.1082 C.ar         1    LIG   0.0000
  14 C14          5.2382     0.8487    -5.1866 C.ar         1    LIG   0.0000
  15 C15          3.9994     0.2260    -5.0751 C.ar         1    LIG   0.0000
  16 C16          3.4512    -0.5700    -6.2483 C.3          1    LIG   0.0000
  17 C17          3.2536     0.3209    -3.9049 C.ar         1    LIG   0.0000
  18 C18          3.1024     0.2765    -0.5759 C.2          1    LIG   0.0000
  19 O19          3.8340    -0.7031    -0.5318 O.2          1    LIG   0.0000
  20 C20          2.1801     0.7045     0.5484 C.3          1    LIG   0.0000
  21 O21          1.2056    -0.2851     0.8536 O.3          1    LIG   0.0000
  22 N22          0.0974     0.0375     0.1264 N.pl3        1    LIG   0.0000
  23 C23         -0.8227    -0.8650    -0.4211 C.ar         1    LIG   0.0000
  24 C24         -1.9108    -0.3858    -1.1430 C.ar         1    LIG   0.0000
  25 C25         -2.8201    -1.2894    -1.6826 C.ar         1    LIG   0.0000
  26 C26         -2.6361    -2.6564    -1.4983 C.ar         1    LIG   0.0000
  27 C27         -1.5448    -3.1268    -0.7752 C.ar         1    LIG   0.0000
  28 C28         -0.6309    -2.2297    -0.2315 C.ar         1    LIG   0.0000
  29 C29         -1.8000     1.3042     1.7524 C.ar         1    LIG   0.0000
  30 C30         -2.4651     1.7690     2.8822 C.ar         1    LIG   0.0000
  31 C31         -2.0244     2.9358     3.4981 C.ar         1    LIG   0.0000
  32 O32         -2.6642     3.3917     4.5947 O.3          1    LIG   0.0000
  33 H           -0.4549     1.7705    -0.8232 H            1    LIG   0.0000
  34 H            1.6138     2.7135     0.5921 H            1    LIG   0.0000
  35 H            2.7070     0.9428     1.3643 H            1    LIG   0.0000
  36 H            0.8300     6.2239     3.5288 H            1    LIG   0.0000
  37 H            1.3826     4.7760     3.0140 H            1    LIG   0.0000
  38 H            0.3830     5.6524     2.0658 H            1    LIG   0.0000
  39 H            0.5211     3.6722     1.4969 H            1    LIG   0.0000
  40 H            5.3628     2.2062    -2.1558 H            1    LIG   0.0000
  41 H            6.6212     2.0260    -4.1820 H            1    LIG   0.0000
  42 H            5.7676     0.7747    -6.0317 H            1    LIG   0.0000
  43 H            4.1036    -0.5396    -7.0055 H            1    LIG   0.0000
  44 H            3.3085    -1.5196    -5.9692 H            1    LIG   0.0000
  45 H            2.5810    -0.1744    -6.5419 H            1    LIG   0.0000
  46 H            2.3636    -0.1293    -3.8313 H            1    LIG   0.0000
  47 H           -2.0380     0.5976    -1.2725 H            1    LIG   0.0000
  48 H           -3.6064    -0.9567    -2.2033 H            1    LIG   0.0000
  49 H           -3.2915    -3.3037    -1.8875 H            1    LIG   0.0000
  50 H           -1.4171    -4.1102    -0.6461 H            1    LIG   0.0000
  51 H            0.1550    -2.5622     0.2899 H            1    LIG   0.0000
  52 H           -2.1064     0.4661     1.3012 H            1    LIG   0.0000
  53 H           -3.2510     1.2700     3.2474 H            1    LIG   0.0000
  54 H           -3.4495     2.8914     4.9596 H            1    LIG   0.0000
@<TRIPOS>BOND
   1        1        2 1
   2        2        3 1
   3        3        4 ar
   4        4        5 ar
   5        5        6 1
   6        6        7 1
   7        7        8 1
   8        8        9 2
   9        8       10 am
  10       10       11 1
  11       11       12 ar
  12       12       13 ar
  13       13       14 ar
  14       14       15 ar
  15       15       16 1
  16       15       17 ar
  17       17       11 ar
  18       10       18 am
  19       18       19 2
  20       18       20 1
  21       20        7 1
  22       20       21 1
  23       21       22 1
  24       22        6 1
  25       22       23 1
  26       23       24 ar
  27       24       25 ar
  28       25       26 ar
  29       26       27 ar
  30       27       28 ar
  31       28       23 ar
  32        5       29 ar
  33       29       30 ar
  34       30       31 ar
  35       31        3 ar
  36       31       32 1
  37        6       33 1
  38        7       34 1
  39       20       35 1
  40        1       36 1
  41        1       37 1
  42        1       38 1
  43        4       39 1
  44       12       40 1
  45       13       41 1
  46       14       42 1
  47       16       43 1
  48       16       44 1
  49       16       45 1
  50       17       46 1
  51       24       47 1
  52       25       48 1
  53       26       49 1
  54       27       50 1
  55       28       51 1
  56       29       52 1
  57       30       53 1
  58       32       54 1

@<TRIPOS>MOLECULE

  54   58
SMALL
USER_CHARGES
@<TRIPOS>ATOM
   1 C1          -4.2143     0.2907     2.3015 C.3          1    LIG   0.0000
   2 O2          -3.7412     1.3443     3.1276 O.3          1    LIG   0.0000
   3 C3          -2.5689     1.8964     2.7507 C.ar         1    LIG   0.0000
   4 C4          -1.9153     1.4218     1.6193 C.ar         1    LIG   0.0000
   5 C5          -0.7083     2.0054     1.2503 C.ar         1    LIG   0.0000
   6 C6           0.0151     1.4945     0.0152 C.3          1    LIG   0.0000
   7 C7           1.4697     1.9209    -0.0002 C.3          1    LIG   0.0000
   8 C8           2.0916     2.1501    -1.3713 C.2          1    LIG   0.0000
   9 O9           1.8177     3.0814    -2.1103 O.2          1    LIG   0.0000
  10 N10          3.0237     1.1541    -1.6564 N.am         1    LIG   0.0000
  11 C11          3.7662     1.0523    -2.8389 C.ar         1    LIG   0.0000
  12 C12          3.2567     0.3219    -3.9077 C.ar         1    LIG   0.0000
  13 C13          4.0033     0.2275    -5.0773 C.ar         1    LIG   0.0000
  14 C14          5.2413     0.8521    -5.1849 C.ar         1    LIG   0.0000
  15 C15          5.7313     1.5774    -4.1038 C.ar         1    LIG   0.0000
  16 C16          7.0836     2.2632    -4.2113 C.3          1    LIG   0.0000
  17 C17          5.0019     1.6847    -2.9245 C.ar         1    LIG   0.0000
  18 C18          3.1024     0.2765    -0.5759 C.2          1    LIG   0.0000
  19 O19          3.8340    -0.7031    -0.5318 O.2          1    LIG   0.0000
  20 C20          2.1801     0.7045     0.5484 C.3          1    LIG   0.0000
  21 O21          1.2056    -0.2851     0.8536 O.3          1    LIG   0.0000
  22 N22          0.0974     0.0375     0.1264 N.pl3        1    LIG   0.0000
  23 C23         -0.8227    -0.8650    -0.4211 C.ar         1    LIG   0.0000
  24 C24         -1.9108    -0.3858    -1.1430 C.ar         1    LIG   0.0000
  25 C25         -2.8201    -1.2894    -1.6826 C.ar         1    LIG   0.0000
  26 C26         -2.6361    -2.6564    -1.4983 C.ar         1    LIG   0.0000
  27 C27         -1.5448    -3.1268    -0.7752 C.ar         1    LIG   0.0000
  28 C28         -0.6309    -2.2297    -0.2315 C.ar         1    LIG   0.0000
  29 C29         -0.1588     3.0452     1.9936 C.ar         1    LIG   0.0000
  30 C30         -0.8175     3.5151     3.1249 C.ar         1    LIG   0.0000
  31 C31         -2.0255     2.9348     3.4979 C.ar         1    LIG   0.0000
  32 O32         -2.6701     3.3863     4.5935 O.3          1    LIG   0.0000
  33 H           -0.4549     1.7705    -0.8232 H            1    LIG   0.0000
  34 H            1.6138     2.7135     0.5921 H            1    LIG   0.0000
  35 H            2.7070     0.9428     1.3643 H            1    LIG   0.0000
  36 H           -5.0829    -0.0504     2.6609 H            1    LIG   0.0000
  37 H           -4.3493     0.6315     1.3711 H            1    LIG   0.0000
  38 H           -3.5438    -0.4512     2.2906 H            1    LIG   0.0000
  39 H           -2.3057     0.6750     1.0810 H            1    LIG   0.0000
  40 H            2.3668    -0.1286    -3.8361 H            1    LIG   0.0000
  41 H            3.6455    -0.2960    -5.8506 H            1    LIG   0.0000
  42 H            5.7726     0.7807    -6.0291 H            1    LIG   0.0000
  43 H            7.4743     2.0898    -5.1154 H            1    LIG   0.0000
  44 H            6.9692     3.2480    -4.0809 H            1    LIG   0.0000
  45 H            7.6969     1.9028    -3.5085 H            1    LIG   0.0000
  46 H            5.3600     2.2077    -2.1511 H            1    LIG   0.0000
  47 H           -2.0380     0.5976    -1.2725 H            1    LIG   0.0000
  48 H           -3.6064    -0.9567    -2.2033 H            1    LIG   0.0000
  49 H           -3.2915    -3.3037    -1.8875 H            1    LIG   0.0000
  50 H           -1.4171    -4.1102    -0.6461 H            1    LIG   0.0000
  51 H            0.1550    -2.5622     0.2899 H            1    LIG   0.0000
  52 H            0.7098     3.4546     1.7144 H            1    LIG   0.0000
  53 H           -0.4271     4.2614     3.6640 H            1    LIG   0.0000
  54 H           -2.2793     4.1333     5.1312 H            1    LIG   0.0000
@<TRIPOS>BOND
   1        1        2 1
   2        2        3 1
   3        3        4 ar
   4        4        5 ar
   5        5        6 1
   6        6        7 1
   7        7        8 1
   8        8        9 2
   9        8       10 am
  10       10       11 1
  11       11       12 ar
  12       12       13 ar
  13       13       14 ar
  14       14       15 ar
  15       15       16 1
  16       15       17 ar
  17       17       11 ar
  18       10       18 am
  19       18       19 2
  20       18       20 1
  21       20        7 1
  22       20       21 1
  23       21       22 1
  24       22        6 1
  25       22       23 1
  26       23       24 ar
  27       24       25 ar
  28       25       26 ar
  29       26       27 ar
  30       27       28 ar
  31       28       23 ar
  32        5       29 ar
  33       29       30 ar
  34       30       31 ar
  35       31        3 ar
  36       31       32 1
  37        6       33 1
  38        7       34 1
  39       20       35 1
  40        1       36 1
  41        1       37 1
  42        1       38 1
  43        4       39 1
  44       12       40 1
  45       13       41 1
  46       14       42 1
  47       16       43 1
  48       16       44 1
  49       16       45 1
  50       17       46 1
  51       24       47 1
  52       25       48 1
  53       26       49 1
  54       27       50 1
  55       28       51 1
  56       29       52 1
  57       30       53 1
  58       32       54 1

@<TRIPOS>MOLECULE

  54   58
SMALL
USER_CHARGES
@<TRIPOS>ATOM
   1 C1          -4.2143     0.2907     2.3015 C.3          1    LIG   0.0000
   2 O2          -3.7412     1.3443     3.1276 O.3          1    LIG   0.0000
   3 C3          -2.5689     1.8964     2.7507 C.ar         1    LIG   0.0000
   4 C4          -1.9153     1.4218     1.6193 C.ar         1    LIG   0.0000
   5 C5          -0.7083     2.0054     1.2503 C.ar         1    LIG   0.0000
   6 C6           0.0151     1.4945     0.0152 C.3          1    LIG   0.0000
   7 C7           1.4697     1.9209    -0.0002 C.3          1    LIG   0.0000
   8 C8           2.0916     2.1501    -1.3713 C.2          1    LIG   0.0000
   9 O9           1.8177     3.0814    -2.1103 O.2          1    LIG   0.0000
  10 N10          3.0237     1.1541    -1.6564 N.am         1    LIG   0.0000
  11 C11          3.7662     1.0523    -2.8389 C.ar         1    LIG   0.0000
  12 C12          5.0029     1.6831    -2.9284 C.ar         1    LIG   0.0000
  13 C13          5.7315     1.5753    -4.1082 C.ar         1    LIG   0.0000
  14 C14          5.2382     0.8487    -5.1866 C.ar         1    LIG   0.0000
  15 C15          3.9994     0.2260    -5.0751 C.ar         1    LIG   0.0000
  16 C16          3.4512    -0.5700    -6.2483 C.3          1    LIG   0.0000
  17 C17          3.2536     0.3209    -3.9049 C.ar         1    LIG   0.0000
  18 C18          3.1024     0.2765    -0.5759 C.2          1    LIG   0.0000
  19 O19          3.8340    -0.7031    -0.5318 O.2          1    LIG   0.0000
  20 C20          2.1801     0.7045     0.5484 C.3          1    LIG   0.0000
  21 O21          1.2056    -0.2851     0.8536 O.3          1    LIG   0.0000
  22 N22          0.0974     0.0375     0.1264 N.pl3        1    LIG   0.0000
  23 C23         -0.8227    -0.8650    -0.4211 C.ar         1    LIG   0.0000
  24 C24         -1.9108    -0.3858    -1.1430 C.ar         1    LIG   0.0000
  25 C25         -2.8201    -1.2894    -1.6826 C.ar         1    LIG   0.0000
  26 C26         -2.6361    -2.6564    -1.4983 C.ar         1    LIG   0.0000
  27 C27         -1.5448    -3.1268    -0.7752 C.ar         1    LIG   0.0000
  28 C28         -0.6309    -2.2297    -0.2315 C.ar         1    LIG   0.0000
  29 C29         -0.1588     3.0452     1.9936 C.ar         1    LIG   0.0000
  30 C30         -0.8175     3.5151     3.1249 C.ar         1    LIG   0.0000
  31 C31         -2.0255     2.9348     3.4979 C.ar         1    LIG   0.0000
  32 O32         -2.6701     3.3863     4.5935 O.3          1    LIG   0.0000
  33 H           -0.4549     1.7705    -0.8232 H            1    LIG   0.0000
  34 H            1.6138     2.7135     0.5921 H            1    LIG   0.0000
  35 H            2.7070     0.9428     1.3643 H            1    LIG   0.0000
  36 H           -5.0829    -0.0504     2.6609 H            1    LIG   0.0000
  37 H           -4.3493     0.6315     1.3711 H            1    LIG   0.0000
  38 H           -3.5438    -0.4512     2.2906 H            1    LIG   0.0000
  39 H           -2.3057     0.6750     1.0810 H            1    LIG   0.0000
  40 H            5.3628     2.2062    -2.1558 H            1    LIG   0.0000
  41 H            6.6212     2.0260    -4.1820 H            1    LIG   0.0000
  42 H            5.7676     0.7747    -6.0317 H            1    LIG   0.0000
  43 H            4.1036    -0.5396    -7.0055 H            1    LIG   0.0000
  44 H            3.3085    -1.5196    -5.9692 H            1    LIG   0.0000
  45 H            2.5810    -0.1744    -6.5419 H            1    LIG   0.0000
  46 H            2.3636    -0.1293    -3.8313 H            1    LIG   0.0000
  47 H           -2.0380     0.5976    -1.2725 H            1    LIG   0.0000
  48 H           -3.6064    -0.9567    -2.2033 H            1    LIG   0.0000
  49 H           -3.2915    -3.3037    -1.8875 H            1    LIG   0.0000
  50 H           -1.4171    -4.1102    -0.6461 H            1    LIG   0.0000
  51 H            0.1550    -2.5622     0.2899 H            1    LIG   0.0000
  52 H            0.7098     3.4546     1.7144 H            1    LIG   0.0000
  53 H           -0.4271     4.2614     3.6640 H            1    LIG   0.0000
  54 H           -2.2793     4.1333     5.1312 H            1    LIG   0.0000
@<TRIPOS>BOND
   1        1        2 1
   2        2        3 1
   3        3        4 ar
   4        4        5 ar
   5        5        6 1
   6        6        7 1
   7        7        8 1
   8        8        9 2
   9        8       10 am
  10       10       11 1
  11       11       12 ar
  12       12       13 ar
  13       13       14 ar
  14       14       15 ar
  15       15       16 1
  16       15       17 ar
  17       17       11 ar
  18       10       18 am
  19       18       19 2
  20       18       20 1
  21       20        7 1
  22       20       21 1
  23       21       22 1
  24       22        6 1
  25       22       23 1
  26       23       24 ar
  27       24       25 ar
  28       25       26 ar
  29       26       27 ar
  30       27       28 ar
  31       28       23 ar
  32        5       29 ar
  33       29       30 ar
  34       30       31 ar
  35       31        3 ar
  36       31       32 1
  37        6       33 1
  38        7       34 1
  39       20       35 1
  40        1       36 1
  41        1       37 1
  42        1       38 1
  43        4       39 1
  44       12       40 1
  45       13       41 1
  46       14       42 1
  47       16       43 1
  48       16       44 1
  49       16       45 1
  50       17       46 1
  51       24       47 1
  52       25       48 1
  53       26       49 1
  54       27       50 1
  55       28       51 1
  56       29       52 1
  57       30       53 1
  58       32       54 1

@<TRIPOS>MOLECULE

  54   58
SMALL
USER_CHARGES
@<TRIPOS>ATOM
   1 C1           0.5333     0.7581     4.8889 C.3          1    LIG   0.0000
   2 O2          -0.5657     1.6568     4.8583 O.3          1    LIG   0.0000
   3 C3          -0.9568     2.0547     3.6295 C.ar         1    LIG   0.0000
   4 C4          -0.2884     1.5814     2.5062 C.ar         1    LIG   0.0000
   5 C5          -0.7083     2.0054     1.2503 C.ar         1    LIG   0.0000
   6 C6           0.0151     1.4945     0.0152 C.3          1    LIG   0.0000
   7 C7           1.4697     1.9209    -0.0002 C.3          1    LIG   0.0000
   8 C8           2.0916     2.1501    -1.3713 C.2          1    LIG   0.0000
   9 O9           1.8177     3.0814    -2.1103 O.2          1    LIG   0.0000
  10 N10          3.0237     1.1541    -1.6564 N.am         1    LIG   0.0000
  11 C11          3.7662     1.0523    -2.8389 C.ar         1    LIG   0.0000
  12 C12          3.2567     0.3219    -3.9077 C.ar         1    LIG   0.0000
  13 C13          4.0033     0.2275    -5.0773 C.ar         1    LIG   0.0000
  14 C14          5.2413     0.8521    -5.1849 C.ar         1    LIG   0.0000
  15 C15          5.7313     1.5774    -4.1038 C.ar         1    LIG   0.0000
  16 C16          7.0836     2.2632    -4.2113 C.3          1    LIG   0.0000
  17 C17          5.0019     1.6847    -2.9245 C.ar         1    LIG   0.0000
  18 C18          3.1024     0.2765    -0.5759 C.2          1    LIG   0.0000
  19 O19          3.8340    -0.7031    -0.5318 O.2          1    LIG   0.0000
  20 C20          2.1801     0.7045     0.5484 C.3          1    LIG   0.0000
  21 O21          1.2056    -0.2851     0.8536 O.3          1    LIG   0.0000
  22 N22          0.0974     0.0375     0.1264 N.pl3        1    LIG   0.0000
  23 C23         -0.8227    -0.8650    -0.4211 C.ar         1    LIG   0.0000
  24 C24         -1.9108    -0.3858    -1.1430 C.ar         1    LIG   0.0000
  25 C25         -2.8201    -1.2894    -1.6826 C.ar         1    LIG   0.0000
  26 C26         -2.6361    -2.6564    -1.4983 C.ar         1    LIG   0.0000
  27 C27         -1.5448    -3.1268    -0.7752 C.ar         1    LIG   0.0000
  28 C28         -0.6309    -2.2297    -0.2315 C.ar         1    LIG   0.0000
  29 C29         -1.7764     2.8861     1.1119 C.ar         1    LIG   0.0000
  30 C30         -2.4406     3.3565     2.2398 C.ar         1    LIG   0.0000
  31 C31         -2.0244     2.9348     3.4985 C.ar         1    LIG   0.0000
  32 O32         -2.6648     3.3863     4.5966 O.3          1    LIG   0.0000
  33 H           -0.4549     1.7705    -0.8232 H            1    LIG   0.0000
  34 H            1.6138     2.7135     0.5921 H            1    LIG   0.0000
  35 H            2.7070     0.9428     1.3643 H            1    LIG   0.0000
  36 H            0.7460     0.5238     5.8375 H            1    LIG   0.0000
  37 H            0.2984    -0.0730     4.3849 H            1    LIG   0.0000
  38 H            1.3295     1.1907     4.4659 H            1    LIG   0.0000
  39 H            0.4797     0.9480     2.5996 H            1    LIG   0.0000
  40 H            2.3668    -0.1286    -3.8361 H            1    LIG   0.0000
  41 H            3.6455    -0.2960    -5.8506 H            1    LIG   0.0000
  42 H            5.7726     0.7807    -6.0291 H            1    LIG   0.0000
  43 H            7.4743     2.0898    -5.1154 H            1    LIG   0.0000
  44 H            6.9692     3.2480    -4.0809 H            1    LIG   0.0000
  45 H            7.6969     1.9028    -3.5085 H            1    LIG   0.0000
  46 H            5.3600     2.2077    -2.1511 H            1    LIG   0.0000
  47 H           -2.0380     0.5976    -1.2725 H            1    LIG   0.0000
  48 H           -3.6064    -0.9567    -2.2033 H            1    LIG   0.0000
  49 H           -3.2915    -3.3037    -1.8875 H            1    LIG   0.0000
  50 H           -1.4171    -4.1102    -0.6461 H            1    LIG   0.0000
  51 H            0.1550    -2.5622     0.2899 H            1    LIG   0.0000
  52 H           -2.0665     3.1810     0.2014 H            1    LIG   0.0000
  53 H           -3.2083     3.9905     2.1471 H            1    LIG   0.0000
  54 H           -3.4330     4.0195     4.5025 H            1    LIG   0.0000
@<TRIPOS>BOND
   1        1        2 1
   2        2        3 1
   3        3        4 ar
   4        4        5 ar
   5        5        6 1
   6        6        7 1
   7        7        8 1
   8        8        9 2
   9        8       10 am
  10       10       11 1
  11       11       12 ar
  12       12       13 ar
  13       13       14 ar
  14       14       15 ar
  15       15       16 1
  16       15       17 ar
  17       17       11 ar
  18       10       18 am
  19       18       19 2
  20       18       20 1
  21       20        7 1
  22       20       21 1
  23       21       22 1
  24       22        6 1
  25       22       23 1
  26       23       24 ar
  27       24       25 ar
  28       25       26 ar
  29       26       27 ar
  30       27       28 ar
  31       28       23 ar
  32        5       29 ar
  33       29       30 ar
  34       30       31 ar
  35       31        3 ar
  36       31       32 1
  37        6       33 1
  38        7       34 1
  39       20       35 1
  40        1       36 1
  41        1       37 1
  42        1       38 1
  43        4       39 1
  44       12       40 1
  45       13       41 1
  46       14       42 1
  47       16       43 1
  48       16       44 1
  49       16       45 1
  50       17       46 1
  51       24       47 1
  52       25       48 1
  53       26       49 1
  54       27       50 1
  55       28       51 1
  56       29       52 1
  57       30       53 1
  58       32       54 1

@<TRIPOS>MOLECULE

  54   58
SMALL
USER_CHARGES
@<TRIPOS>ATOM
   1 C1           0.5333     0.7581     4.8889 C.3          1    LIG   0.0000
   2 O2          -0.5657     1.6568     4.8583 O.3          1    LIG   0.0000
   3 C3          -0.9568     2.0547     3.6295 C.ar         1    LIG   0.0000
   4 C4          -0.2884     1.5814     2.5062 C.ar         1    LIG   0.0000
   5 C5          -0.7083     2.0054     1.2503 C.ar         1    LIG   0.0000
   6 C6           0.0151     1.4945     0.0152 C.3          1    LIG   0.0000
   7 C7           1.4697     1.9209    -0.0002 C.3          1    LIG   0.0000
   8 C8           2.0916     2.1501    -1.3713 C.2          1    LIG   0.0000
   9 O9           1.8177     3.0814    -2.1103 O.2          1    LIG   0.0000
  10 N10          3.0237     1.1541    -1.6564 N.am         1    LIG   0.0000
  11 C11          3.7662     1.0523    -2.8389 C.ar         1    LIG   0.0000
  12 C12          5.0029     1.6831    -2.9284 C.ar         1    LIG   0.0000
  13 C13          5.7315     1.5753    -4.1082 C.ar         1    LIG   0.0000
  14 C14          5.2382     0.8487    -5.1866 C.ar         1    LIG   0.0000
  15 C15          3.9994     0.2260    -5.0751 C.ar         1    LIG   0.0000
  16 C16          3.4512    -0.5700    -6.2483 C.3          1    LIG   0.0000
  17 C17          3.2536     0.3209    -3.9049 C.ar         1    LIG   0.0000
  18 C18          3.1024     0.2765    -0.5759 C.2          1    LIG   0.0000
  19 O19          3.8340    -0.7031    -0.5318 O.2          1    LIG   0.0000
  20 C20          2.1801     0.7045     0.5484 C.3          1    LIG   0.0000
  21 O21          1.2056    -0.2851     0.8536 O.3          1    LIG   0.0000
  22 N22          0.0974     0.0375     0.1264 N.pl3        1    LIG   0.0000
  23 C23         -0.8227    -0.8650    -0.4211 C.ar         1    LIG   0.0000
  24 C24         -1.9108    -0.3858    -1.1430 C.ar         1    LIG   0.0000
  25 C25         -2.8201    -1.2894    -1.6826 C.ar         1    LIG   0.0000
  26 C26         -2.6361    -2.6564    -1.4983 C.ar         1    LIG   0.0000
  27 C27         -1.5448    -3.1268    -0.7752 C.ar         1    LIG   0.0000
  28 C28         -0.6309    -2.2297    -0.2315 C.ar         1    LIG   0.0000
  29 C29         -1.7764     2.8861     1.1119 C.ar         1    LIG   0.0000
  30 C30         -2.4406     3.3565     2.2398 C.ar         1    LIG   0.0000
  31 C31         -2.0244     2.9348     3.4985 C.ar         1    LIG   0.0000
  32 O32         -2.6648     3.3863     4.5966 O.3          1    LIG   0.0000
  33 H           -0.4549     1.7705    -0.8232 H            1    LIG   0.0000
  34 H            1.6138     2.7135     0.5921 H            1    LIG   0.0000
  35 H            2.7070     0.9428     1.3643 H            1    LIG   0.0000
  36 H            0.7460     0.5238     5.8375 H            1    LIG   0.0000
  37 H            0.2984    -0.0730     4.3849 H            1    LIG   0.0000
  38 H            1.3295     1.1907     4.4659 H            1    LIG   0.0000
  39 H            0.4797     0.9480     2.5996 H            1    LIG   0.0000
  40 H            5.3628     2.2062    -2.1558 H            1    LIG   0.0000
  41 H            6.6212     2.0260    -4.1820 H            1    LIG   0.0000
  42 H            5.7676     0.7747    -6.0317 H            1    LIG   0.0000
  43 H            4.1036    -0.5396    -7.0055 H            1    LIG   0.0000
  44 H            3.3085    -1.5196    -5.9692 H            1    LIG   0.0000
  45 H            2.5810    -0.1744    -6.5419 H            1    LIG   0.0000
  46 H            2.3636    -0.1293    -3.8313 H            1    LIG   0.0000
  47 H           -2.0380     0.5976    -1.2725 H            1    LIG   0.0000
  48 H           -3.6064    -0.9567    -2.2033 H            1    LIG   0.0000
  49 H           -3.2915    -3.3037    -1.8875 H            1    LIG   0.0000
  50 H           -1.4171    -4.1102    -0.6461 H            1    LIG   0.0000
  51 H            0.1550    -2.5622     0.2899 H            1    LIG   0.0000
  52 H           -2.0665     3.1810     0.2014 H            1    LIG   0.0000
  53 H           -3.2083     3.9905     2.1471 H            1    LIG   0.0000
  54 H           -3.4330     4.0195     4.5025 H            1    LIG   0.0000
@<TRIPOS>BOND
   1        1        2 1
   2        2        3 1
   3        3        4 ar
   4        4        5 ar
   5        5        6 1
   6        6        7 1
   7        7        8 1
   8        8        9 2
   9        8       10 am
  10       10       11 1
  11       11       12 ar
  12       12       13 ar
  13       13       14 ar
  14       14       15 ar
  15       15       16 1
  16       15       17 ar
  17       17       11 ar
  18       10       18 am
  19       18       19 2
  20       18       20 1
  21       20        7 1
  22       20       21 1
  23       21       22 1
  24       22        6 1
  25       22       23 1
  26       23       24 ar
  27       24       25 ar
  28       25       26 ar
  29       26       27 ar
  30       27       28 ar
  31       28       23 ar
  32        5       29 ar
  33       29       30 ar
  34       30       31 ar
  35       31        3 ar
  36       31       32 1
  37        6       33 1
  38        7       34 1
  39       20       35 1
  40        1       36 1
  41        1       37 1
  42        1       38 1
  43        4       39 1
  44       12       40 1
  45       13       41 1
  46       14       42 1
  47       16       43 1
  48       16       44 1
  49       16       45 1
  50       17       46 1
  51       24       47 1
  52       25       48 1
  53       26       49 1
  54       27       50 1
  55       28       51 1
  56       29       52 1
  57       30       53 1
  58       32       54 1

@<TRIPOS>MOLECULE

  54   58
SMALL
USER_CHARGES
@<TRIPOS>ATOM
   1 C1          -1.9188    -0.5978     4.0894 C.3          1    LIG   0.0000
   2 O2          -2.1930     0.7751     4.3268 O.3          1    LIG   0.0000
   3 C3          -1.7718     1.6259     3.3679 C.ar         1    LIG   0.0000
   4 C4          -1.1186     1.1308     2.2451 C.ar         1    LIG   0.0000
   5 C5          -0.6928     2.0262     1.2702 C.ar         1    LIG   0.0000
   6 C6           0.0226     1.4961     0.0385 C.3          1    LIG   0.0000
   7 C7           1.4802     1.9073     0.0095 C.3          1    LIG   0.0000
   8 C8           2.1339     2.1039    -1.3437 C.2          1    LIG   0.0000
   9 O9           1.9546     3.0636    -2.0654 O.2          1    LIG   0.0000
  10 N10          2.9941     1.0483    -1.6436 N.am         1    LIG   0.0000
  11 C11          3.6988     0.8972    -2.8439 C.ar         1    LIG   0.0000
  12 C12          3.5603     1.8528    -3.8453 C.ar         1    LIG   0.0000
  13 C13          4.2650     1.6921    -5.0335 C.ar         1    LIG   0.0000
  14 C14          5.0986     0.5954    -5.2249 C.ar         1    LIG   0.0000
  15 C15          5.2223    -0.3478    -4.2101 C.ar         1    LIG   0.0000
  16 C16          6.1305    -1.5502    -4.4098 C.3          1    LIG   0.0000
  17 C17          4.5266    -0.2074    -3.0139 C.ar         1    LIG   0.0000
  18 C18          3.0519     0.1603    -0.5708 C.2          1    LIG   0.0000
  19 O19          3.6952    -0.8738    -0.5350 O.2          1    LIG   0.0000
  20 C20          2.2096     0.7060     0.5644 C.3          1    LIG   0.0000
  21 O21          1.2269    -0.2608     0.8934 O.3          1    LIG   0.0000
  22 N22          0.1081     0.0434     0.1688 N.pl3        1    LIG   0.0000
  23 C23         -0.8099    -0.8699    -0.3640 C.ar         1    LIG   0.0000
  24 C24         -1.9060    -0.4042    -1.0828 C.ar         1    LIG   0.0000
  25 C25         -2.8132    -1.3185    -1.6078 C.ar         1    LIG   0.0000
  26 C26         -2.6194    -2.6826    -1.4120 C.ar         1    LIG   0.0000
  27 C27         -1.5203    -3.1394    -0.6920 C.ar         1    LIG   0.0000
  28 C28         -0.6084    -2.2315    -0.1630 C.ar         1    LIG   0.0000
  29 C29         -0.9127     3.3930     1.4079 C.ar         1    LIG   0.0000
  30 C30         -1.5665     3.8821     2.5340 C.ar         1    LIG   0.0000
  31 C31         -1.9947     2.9902     3.5119 C.ar         1    LIG   0.0000
  32 O32         -2.6303     3.4577     4.6062 O.3          1    LIG   0.0000
  33 H           -0.4497     1.7614    -0.8021 H            1    LIG   0.0000
  34 H            1.6301     2.7073     0.5905 H            1    LIG   0.0000
  35 H            2.7698     0.9476     1.3568 H            1    LIG   0.0000
  36 H           -2.2673    -1.1440     4.8512 H            1    LIG   0.0000
  37 H           -2.3649    -0.8851     3.2418 H            1    LIG   0.0000
  38 H           -0.9311    -0.7312     4.0081 H            1    LIG   0.0000
  39 H           -0.9579     0.1494     2.1405 H            1    LIG   0.0000
  40 H            2.9628     2.6437    -3.7128 H            1    LIG   0.0000
  41 H            4.1711     2.3736    -5.7593 H            1    LIG   0.0000
  42 H            5.6030     0.4864    -6.0815 H            1    LIG   0.0000
  43 H            6.5531    -1.5021    -5.3148 H            1    LIG   0.0000
  44 H            6.8434    -1.5496    -3.7085 H            1    LIG   0.0000
  45 H            5.5924    -2.3900    -4.3374 H            1    LIG   0.0000
  46 H            4.6201    -0.8891    -2.2884 H            1    LIG   0.0000
  47 H           -2.0402     0.5771    -1.2206 H            1    LIG   0.0000
  48 H           -3.6051    -0.9956    -2.1261 H            1    LIG   0.0000
  49 H           -3.2733    -3.3375    -1.7907 H            1    LIG   0.0000
  50 H           -1.3855    -4.1207    -0.5547 H            1    LIG   0.0000
  51 H            0.1831    -2.5542     0.3560 H            1    LIG   0.0000
  52 H           -0.6009     4.0238     0.6974 H            1    LIG   0.0000
  53 H           -1.7267     4.8636     2.6395 H            1    LIG   0.0000
  54 H           -2.7908     4.4392     4.7100 H            1    LIG   0.0000
@<TRIPOS>BOND
   1        1        2 1
   2        2        3 1
   3        3        4 ar
   4        4        5 ar
   5        5        6 1
   6        6        7 1
   7        7        8 1
   8        8        9 2
   9        8       10 am
  10       10       11 1
  11       11       12 ar
  12       12       13 ar
  13       13       14 ar
  14       14       15 ar
  15       15       16 1
  16       15       17 ar
  17       17       11 ar
  18       10       18 am
  19       18       19 2
  20       18       20 1
  21       20        7 1
  22       20       21 1
  23       21       22 1
  24       22        6 1
  25       22       23 1
  26       23       24 ar
  27       24       25 ar
  28       25       26 ar
  29       26       27 ar
  30       27       28 ar
  31       28       23 ar
  32        5       29 ar
  33       29       30 ar
  34       30       31 ar
  35       31        3 ar
  36       31       32 1
  37        6       33 1
  38        7       34 1
  39       20       35 1
  40        1       36 1
  41        1       37 1
  42        1       38 1
  43        4       39 1
  44       12       40 1
  45       13       41 1
  46       14       42 1
  47       16       43 1
  48       16       44 1
  49       16       45 1
  50       17       46 1
  51       24       47 1
  52       25       48 1
  53       26       49 1
  54       27       50 1
  55       28       51 1
  56       29       52 1
  57       30       53 1
  58       32       54 1

@<TRIPOS>MOLECULE

  54   58
SMALL
USER_CHARGES
@<TRIPOS>ATOM
   1 C1          -2.0193     0.5733     4.5171 C.3          1    LIG   0.0000
   2 O2          -2.9545    -0.2864     3.8824 O.3          1    LIG   0.0000
   3 C3          -2.6503    -0.6428     2.6169 C.ar         1    LIG   0.0000
   4 C4          -1.4842    -0.1674     2.0280 C.ar         1    LIG   0.0000
   5 C5          -1.1914    -0.5473     0.7229 C.ar         1    LIG   0.0000
   6 C6           0.0807    -0.0334     0.0689 C.3          1    LIG   0.0000
   7 C7           0.0071     1.4809     0.0172 C.3          1    LIG   0.0000
   8 C8          -0.5222     1.9563    -1.3342 C.2          1    LIG   0.0000
   9 O9          -1.6866     1.9370    -1.6911 O.2          1    LIG   0.0000
  10 N10          0.5408     2.4206    -2.1117 N.am         1    LIG   0.0000
  11 C11          0.4381     2.8800    -3.4302 C.ar         1    LIG   0.0000
  12 C12          0.5786     1.9809    -4.4825 C.ar         1    LIG   0.0000
  13 C13          0.4750     2.4487    -5.7881 C.ar         1    LIG   0.0000
  14 C14          0.2337     3.7939    -6.0461 C.ar         1    LIG   0.0000
  15 C15          0.0965     4.6753    -4.9787 C.ar         1    LIG   0.0000
  16 C16         -0.1668     6.1475    -5.2503 C.3          1    LIG   0.0000
  17 C17          0.1968     4.2294    -3.6651 C.ar         1    LIG   0.0000
  18 C18          1.7173     2.3511    -1.3662 C.2          1    LIG   0.0000
  19 O19          2.8265     2.6498    -1.8022 O.2          1    LIG   0.0000
  20 C20          1.4681     1.8734     0.0492 C.3          1    LIG   0.0000
  21 O21          2.1668     0.7355     0.5499 O.3          1    LIG   0.0000
  22 N22          1.2637    -0.2265     0.8969 N.pl3        1    LIG   0.0000
  23 C23          1.4225    -1.2335     1.8568 C.ar         1    LIG   0.0000
  24 C24          0.3898    -2.1375     2.0833 C.ar         1    LIG   0.0000
  25 C25          0.5560    -3.1341     3.0392 C.ar         1    LIG   0.0000
  26 C26          1.7453    -3.2195     3.7567 C.ar         1    LIG   0.0000
  27 C27          2.7729    -2.3114     3.5233 C.ar         1    LIG   0.0000
  28 C28          2.6146    -1.3111     2.5694 C.ar         1    LIG   0.0000
  29 C29         -2.0437    -1.3872     0.0131 C.ar         1    LIG   0.0000
  30 C30         -3.2092    -1.8590     0.6079 C.ar         1    LIG   0.0000
  31 C31         -3.5063    -1.4821     1.9136 C.ar         1    LIG   0.0000
  32 O32         -4.6345    -1.9368     2.4968 O.3          1    LIG   0.0000
  33 H            0.2057    -0.4241    -0.8430 H            1    LIG   0.0000
  34 H           -0.5074     1.8641     0.7843 H            1    LIG   0.0000
  35 H            1.5896     2.6387     0.6812 H            1    LIG   0.0000
  36 H           -2.3315     0.7787     5.4446 H            1    LIG   0.0000
  37 H           -1.1272     0.1234     4.5576 H            1    LIG   0.0000
  38 H           -1.9408     1.4231     3.9959 H            1    LIG   0.0000
  39 H           -0.8677     0.4363     2.5334 H            1    LIG   0.0000
  40 H            0.7515     1.0125    -4.3027 H            1    LIG   0.0000
  41 H            0.5753     1.8099    -6.5509 H            1    LIG   0.0000
  42 H            0.1597     4.1235    -6.9873 H            1    LIG   0.0000
  43 H           -0.2104     6.3018    -6.2373 H            1    LIG   0.0000
  44 H           -1.0357     6.4133    -4.8326 H            1    LIG   0.0000
  45 H            0.5725     6.6960    -4.8595 H            1    LIG   0.0000
  46 H            0.0971     4.8683    -2.9023 H            1    LIG   0.0000
  47 H           -0.4626    -2.0716     1.5647 H            1    LIG   0.0000
  48 H           -0.1795    -3.7895     3.2110 H            1    LIG   0.0000
  49 H            1.8618    -3.9372     4.4433 H            1    LIG   0.0000
  50 H            3.6256    -2.3776     4.0414 H            1    LIG   0.0000
  51 H            3.3497    -0.6551     2.3981 H            1    LIG   0.0000
  52 H           -1.8184    -1.6516    -0.9246 H            1    LIG   0.0000
  53 H           -3.8265    -2.4621     0.1027 H            1    LIG   0.0000
  54 H           -5.2505    -2.5406     1.9910 H            1    LIG   0.0000
@<TRIPOS>BOND
   1        1        2 1
   2        2        3 1
   3        3        4 ar
   4        4        5 ar
   5        5        6 1
   6        6        7 1
   7        7        8 1
   8        8        9 2
   9        8       10 am
  10       10       11 1
  11       11       12 ar
  12       12       13 ar
  13       13       14 ar
  14       14       15 ar
  15       15       16 1
  16       15       17 ar
  17       17       11 ar
  18       10       18 am
  19       18       19 2
  20       18       20 1
  21       20        7 1
  22       20       21 1
  23       21       22 1
  24       22        6 1
  25       22       23 1
  26       23       24 ar
  27       24       25 ar
  28       25       26 ar
  29       26       27 ar
  30       27       28 ar
  31       28       23 ar
  32        5       29 ar
  33       29       30 ar
  34       30       31 ar
  35       31        3 ar
  36       31       32 1
  37        6       33 1
  38        7       34 1
  39       20       35 1
  40        1       36 1
  41        1       37 1
  42        1       38 1
  43        4       39 1
  44       12       40 1
  45       13       41 1
  46       14       42 1
  47       16       43 1
  48       16       44 1
  49       16       45 1
  50       17       46 1
  51       24       47 1
  52       25       48 1
  53       26       49 1
  54       27       50 1
  55       28       51 1
  56       29       52 1
  57       30       53 1
  58       32       54 1

@<TRIPOS>MOLECULE

  54   58
SMALL
USER_CHARGES
@<TRIPOS>ATOM
   1 C1          -2.0193     0.5733     4.5171 C.3          1    LIG   0.0000
   2 O2          -2.9545    -0.2864     3.8824 O.3          1    LIG   0.0000
   3 C3          -2.6503    -0.6428     2.6169 C.ar         1    LIG   0.0000
   4 C4          -1.4842    -0.1674     2.0280 C.ar         1    LIG   0.0000
   5 C5          -1.1914    -0.5473     0.7229 C.ar         1    LIG   0.0000
   6 C6           0.0807    -0.0334     0.0689 C.3          1    LIG   0.0000
   7 C7           0.0071     1.4809     0.0172 C.3          1    LIG   0.0000
   8 C8          -0.5222     1.9563    -1.3342 C.2          1    LIG   0.0000
   9 O9          -1.6866     1.9370    -1.6911 O.2          1    LIG   0.0000
  10 N10          0.5408     2.4206    -2.1117 N.am         1    LIG   0.0000
  11 C11          0.4381     2.8800    -3.4302 C.ar         1    LIG   0.0000
  12 C12          0.1972     4.2292    -3.6694 C.ar         1    LIG   0.0000
  13 C13          0.0969     4.6741    -4.9833 C.ar         1    LIG   0.0000
  14 C14          0.2353     3.7896    -6.0477 C.ar         1    LIG   0.0000
  15 C15          0.4760     2.4450    -5.7854 C.ar         1    LIG   0.0000
  16 C16          0.6282     1.4703    -6.9418 C.3          1    LIG   0.0000
  17 C17          0.5796     1.9781    -4.4793 C.ar         1    LIG   0.0000
  18 C18          1.7173     2.3511    -1.3662 C.2          1    LIG   0.0000
  19 O19          2.8265     2.6498    -1.8022 O.2          1    LIG   0.0000
  20 C20          1.4681     1.8734     0.0492 C.3          1    LIG   0.0000
  21 O21          2.1668     0.7355     0.5499 O.3          1    LIG   0.0000
  22 N22          1.2637    -0.2265     0.8969 N.pl3        1    LIG   0.0000
  23 C23          1.4225    -1.2335     1.8568 C.ar         1    LIG   0.0000
  24 C24          0.3898    -2.1375     2.0833 C.ar         1    LIG   0.0000
  25 C25          0.5560    -3.1341     3.0392 C.ar         1    LIG   0.0000
  26 C26          1.7453    -3.2195     3.7567 C.ar         1    LIG   0.0000
  27 C27          2.7729    -2.3114     3.5233 C.ar         1    LIG   0.0000
  28 C28          2.6146    -1.3111     2.5694 C.ar         1    LIG   0.0000
  29 C29         -2.0437    -1.3872     0.0131 C.ar         1    LIG   0.0000
  30 C30         -3.2092    -1.8590     0.6079 C.ar         1    LIG   0.0000
  31 C31         -3.5063    -1.4821     1.9136 C.ar         1    LIG   0.0000
  32 O32         -4.6345    -1.9368     2.4968 O.3          1    LIG   0.0000
  33 H            0.2057    -0.4241    -0.8430 H            1    LIG   0.0000
  34 H           -0.5074     1.8641     0.7843 H            1    LIG   0.0000
  35 H            1.5896     2.6387     0.6812 H            1    LIG   0.0000
  36 H           -2.3315     0.7787     5.4446 H            1    LIG   0.0000
  37 H           -1.1272     0.1234     4.5576 H            1    LIG   0.0000
  38 H           -1.9408     1.4231     3.9959 H            1    LIG   0.0000
  39 H           -0.8677     0.4363     2.5334 H            1    LIG   0.0000
  40 H            0.0976     4.8696    -2.9079 H            1    LIG   0.0000
  41 H           -0.0769     5.6419    -5.1650 H            1    LIG   0.0000
  42 H            0.1627     4.1164    -6.9900 H            1    LIG   0.0000
  43 H            0.5276     1.9614    -7.8071 H            1    LIG   0.0000
  44 H            1.5326     1.0454    -6.9028 H            1    LIG   0.0000
  45 H           -0.0756     0.7629    -6.8763 H            1    LIG   0.0000
  46 H            0.7528     1.0101    -4.2977 H            1    LIG   0.0000
  47 H           -0.4626    -2.0716     1.5647 H            1    LIG   0.0000
  48 H           -0.1795    -3.7895     3.2110 H            1    LIG   0.0000
  49 H            1.8618    -3.9372     4.4433 H            1    LIG   0.0000
  50 H            3.6256    -2.3776     4.0414 H            1    LIG   0.0000
  51 H            3.3497    -0.6551     2.3981 H            1    LIG   0.0000
  52 H           -1.8184    -1.6516    -0.9246 H            1    LIG   0.0000
  53 H           -3.8265    -2.4621     0.1027 H            1    LIG   0.0000
  54 H           -5.2505    -2.5406     1.9910 H            1    LIG   0.0000
@<TRIPOS>BOND
   1        1        2 1
   2        2        3 1
   3        3        4 ar
   4        4        5 ar
   5        5        6 1
   6        6        7 1
   7        7        8 1
   8        8        9 2
   9        8       10 am
  10       10       11 1
  11       11       12 ar
  12       12       13 ar
  13       13       14 ar
  14       14       15 ar
  15       15       16 1
  16       15       17 ar
  17       17       11 ar
  18       10       18 am
  19       18       19 2
  20       18       20 1
  21       20        7 1
  22       20       21 1
  23       21       22 1
  24       22        6 1
  25       22       23 1
  26       23       24 ar
  27       24       25 ar
  28       25       26 ar
  29       26       27 ar
  30       27       28 ar
  31       28       23 ar
  32        5       29 ar
  33       29       30 ar
  34       30       31 ar
  35       31        3 ar
  36       31       32 1
  37        6       33 1
  38        7       34 1
  39       20       35 1
  40        1       36 1
  41        1       37 1
  42        1       38 1
  43        4       39 1
  44       12       40 1
  45       13       41 1
  46       14       42 1
  47       16       43 1
  48       16       44 1
  49       16       45 1
  50       17       46 1
  51       24       47 1
  52       25       48 1
  53       26       49 1
  54       27       50 1
  55       28       51 1
  56       29       52 1
  57       30       53 1
  58       32       54 1

@<TRIPOS>MOLECULE

  54   58
SMALL
USER_CHARGES
@<TRIPOS>ATOM
   1 C1           2.5602     1.5221    -4.3121 C.3          1    LIG   0.0000
   2 O2           3.5902     0.5649    -4.1141 O.3          1    LIG   0.0000
   3 C3           3.7448     0.1318    -2.8454 C.ar         1    LIG   0.0000
   4 C4           2.9197     0.6272    -1.8422 C.ar         1    LIG   0.0000
   5 C5           3.0975     0.1670    -0.5422 C.ar         1    LIG   0.0000
   6 C6           2.2012     0.7019     0.5626 C.3          1    LIG   0.0000
   7 C7           1.4289     1.8852     0.0179 C.3          1    LIG   0.0000
   8 C8           1.4686     3.0097     1.0335 C.2          1    LIG   0.0000
   9 O9           2.4254     3.7434     1.2171 O.2          1    LIG   0.0000
  10 N10          0.2692     3.0822     1.7288 N.am         1    LIG   0.0000
  11 C11          0.0163     3.9584     2.7910 C.ar         1    LIG   0.0000
  12 C12         -1.2303     3.9456     3.4085 C.ar         1    LIG   0.0000
  13 C13         -1.4702     4.8206     4.4625 C.ar         1    LIG   0.0000
  14 C14         -0.4832     5.6978     4.8993 C.ar         1    LIG   0.0000
  15 C15          0.7560     5.6934     4.2675 C.ar         1    LIG   0.0000
  16 C16          1.8411     6.6487     4.7370 C.3          1    LIG   0.0000
  17 C17          1.0177     4.8272     3.2112 C.ar         1    LIG   0.0000
  18 C18         -0.6451     2.1621     1.2100 C.2          1    LIG   0.0000
  19 O19         -1.7677     1.9664     1.6402 O.2          1    LIG   0.0000
  20 C20         -0.0194     1.4521     0.0246 C.3          1    LIG   0.0000
  21 O21          0.0258     0.0391     0.1142 O.3          1    LIG   0.0000
  22 N22          1.1302    -0.2515     0.8622 N.pl3        1    LIG   0.0000
  23 C23          1.2233    -1.3009     1.7847 C.ar         1    LIG   0.0000
  24 C24          2.4072    -1.4955     2.4886 C.ar         1    LIG   0.0000
  25 C25          2.4910    -2.5408     3.4023 C.ar         1    LIG   0.0000
  26 C26          1.3981    -3.3781     3.6047 C.ar         1    LIG   0.0000
  27 C27          0.2180    -3.1759     2.8965 C.ar         1    LIG   0.0000
  28 C28          0.1259    -2.1331     1.9802 C.ar         1    LIG   0.0000
  29 C29          4.0799    -0.7714    -0.2427 C.ar         1    LIG   0.0000
  30 C30          4.9027    -1.2627    -1.2509 C.ar         1    LIG   0.0000
  31 C31          4.7283    -0.8058    -2.5532 C.ar         1    LIG   0.0000
  32 O32          5.5221    -1.2789    -3.5360 O.3          1    LIG   0.0000
  33 H            2.7233     0.9435     1.3805 H            1    LIG   0.0000
  34 H            1.7439     2.1697    -0.8876 H            1    LIG   0.0000
  35 H           -0.4688     1.7316    -0.8239 H            1    LIG   0.0000
  36 H            2.5250     1.7789    -5.2779 H            1    LIG   0.0000
  37 H            1.6823     1.1283    -4.0396 H            1    LIG   0.0000
  38 H            2.7480     2.3332    -3.7581 H            1    LIG   0.0000
  39 H            2.2116     1.3016    -2.0516 H            1    LIG   0.0000
  40 H           -1.9433     3.3165     3.0990 H            1    LIG   0.0000
  41 H           -2.3635     4.8191     4.9119 H            1    LIG   0.0000
  42 H           -0.6622     6.3239     5.6582 H            1    LIG   0.0000
  43 H            1.4953     7.1979     5.4978 H            1    LIG   0.0000
  44 H            2.6381     6.1255     5.0388 H            1    LIG   0.0000
  45 H            2.1038     7.2512     3.9833 H            1    LIG   0.0000
  46 H            1.9108     4.8292     2.7614 H            1    LIG   0.0000
  47 H            3.1894    -0.8906     2.3393 H            1    LIG   0.0000
  48 H            3.3370    -2.6907     3.9140 H            1    LIG   0.0000
  49 H            1.4614    -4.1288     4.2623 H            1    LIG   0.0000
  50 H           -0.5645    -3.7803     3.0461 H            1    LIG   0.0000
  51 H           -0.7197    -1.9835     1.4678 H            1    LIG   0.0000
  52 H            4.1946    -1.0927     0.6973 H            1    LIG   0.0000
  53 H            5.6114    -1.9366    -1.0419 H            1    LIG   0.0000
  54 H            6.2298    -1.9534    -3.3260 H            1    LIG   0.0000
@<TRIPOS>BOND
   1        1        2 1
   2        2        3 1
   3        3        4 ar
   4        4        5 ar
   5        5        6 1
   6        6        7 1
   7        7        8 1
   8        8        9 2
   9        8       10 am
  10       10       11 1
  11       11       12 ar
  12       12       13 ar
  13       13       14 ar
  14       14       15 ar
  15       15       16 1
  16       15       17 ar
  17       17       11 ar
  18       10       18 am
  19       18       19 2
  20       18       20 1
  21       20        7 1
  22       20       21 1
  23       21       22 1
  24       22        6 1
  25       22       23 1
  26       23       24 ar
  27       24       25 ar
  28       25       26 ar
  29       26       27 ar
  30       27       28 ar
  31       28       23 ar
  32        5       29 ar
  33       29       30 ar
  34       30       31 ar
  35       31        3 ar
  36       31       32 1
  37        6       33 1
  38        7       34 1
  39       20       35 1
  40        1       36 1
  41        1       37 1
  42        1       38 1
  43        4       39 1
  44       12       40 1
  45       13       41 1
  46       14       42 1
  47       16       43 1
  48       16       44 1
  49       16       45 1
  50       17       46 1
  51       24       47 1
  52       25       48 1
  53       26       49 1
  54       27       50 1
  55       28       51 1
  56       29       52 1
  57       30       53 1
  58       32       54 1

@<TRIPOS>MOLECULE

  54   58
SMALL
USER_CHARGES
@<TRIPOS>ATOM
   1 C1           2.8170    -4.3063     3.2801 C.3          1    LIG   0.0000
   2 O2           2.9159    -4.7409     1.9318 O.3          1    LIG   0.0000
   3 C3           2.5266    -3.8436     1.0021 C.ar         1    LIG   0.0000
   4 C4           2.0684    -2.5930     1.4001 C.ar         1    LIG   0.0000
   5 C5           1.6719    -1.6847     0.4247 C.ar         1    LIG   0.0000
   6 C6           1.1692    -0.3144     0.8484 C.3          1    LIG   0.0000
   7 C7           2.2297     0.7342     0.5744 C.3          1    LIG   0.0000
   8 C8           3.0192     1.3242     1.7340 C.2          1    LIG   0.0000
   9 O9           3.8576     0.7314     2.3880 O.2          1    LIG   0.0000
  10 N10          2.6401     2.6514     1.9327 N.am         1    LIG   0.0000
  11 C11          3.1521     3.4855     2.9337 C.ar         1    LIG   0.0000
  12 C12          2.5240     3.5331     4.1742 C.ar         1    LIG   0.0000
  13 C13          3.0414     4.3656     5.1609 C.ar         1    LIG   0.0000
  14 C14          4.1703     5.1412     4.9192 C.ar         1    LIG   0.0000
  15 C15          4.7824     5.0778     3.6716 C.ar         1    LIG   0.0000
  16 C16          6.0163     5.9220     3.3974 C.3          1    LIG   0.0000
  17 C17          4.2818     4.2526     2.6701 C.ar         1    LIG   0.0000
  18 C18          1.6821     3.0359     0.9946 C.2          1    LIG   0.0000
  19 O19          1.1525     4.1382     0.9354 O.2          1    LIG   0.0000
  20 C20          1.3996     1.8879     0.0469 C.3          1    LIG   0.0000
  21 O21          0.0367     1.5019     0.0309 O.3          1    LIG   0.0000
  22 N22          0.0258     0.1368     0.0536 N.pl3        1    LIG   0.0000
  23 C23         -0.9186    -0.6855    -0.5728 C.ar         1    LIG   0.0000
  24 C24         -0.8065    -2.0679    -0.4658 C.ar         1    LIG   0.0000
  25 C25         -1.7487    -2.8771    -1.0919 C.ar         1    LIG   0.0000
  26 C26         -2.7894    -2.3024    -1.8154 C.ar         1    LIG   0.0000
  27 C27         -2.8939    -0.9190    -1.9169 C.ar         1    LIG   0.0000
  28 C28         -1.9553    -0.1024    -1.2942 C.ar         1    LIG   0.0000
  29 C29          1.7299    -2.0133    -0.9259 C.ar         1    LIG   0.0000
  30 C30          2.1887    -3.2666    -1.3175 C.ar         1    LIG   0.0000
  31 C31          2.5870    -4.1786    -0.3455 C.ar         1    LIG   0.0000
  32 O32          3.0340    -5.3955    -0.7183 O.3          1    LIG   0.0000
  33 H            0.9327    -0.3195     1.8200 H            1    LIG   0.0000
  34 H            2.8552     0.4105    -0.1355 H            1    LIG   0.0000
  35 H            1.6970     2.1275    -0.8773 H            1    LIG   0.0000
  36 H            3.1265    -5.0365     3.8892 H            1    LIG   0.0000
  37 H            3.3893    -3.4970     3.4122 H            1    LIG   0.0000
  38 H            1.8656    -4.0794     3.4882 H            1    LIG   0.0000
  39 H            2.0248    -2.3511     2.3694 H            1    LIG   0.0000
  40 H            1.7125     2.9771     4.3537 H            1    LIG   0.0000
  41 H            2.5962     4.4070     6.0554 H            1    LIG   0.0000
  42 H            4.5374     5.7371     5.6334 H            1    LIG   0.0000
  43 H            6.2443     6.4538     4.2130 H            1    LIG   0.0000
  44 H            6.7835     5.3248     3.1635 H            1    LIG   0.0000
  45 H            5.8327     6.5428     2.6352 H            1    LIG   0.0000
  46 H            4.7267     4.2117     1.7755 H            1    LIG   0.0000
  47 H           -0.0568    -2.4754     0.0555 H            1    LIG   0.0000
  48 H           -1.6783    -3.8721    -1.0222 H            1    LIG   0.0000
  49 H           -3.4653    -2.8868    -2.2644 H            1    LIG   0.0000
  50 H           -3.6440    -0.5113    -2.4376 H            1    LIG   0.0000
  51 H           -2.0251     0.8927    -1.3644 H            1    LIG   0.0000
  52 H            1.4416    -1.3486    -1.6151 H            1    LIG   0.0000
  53 H            2.2318    -3.5093    -2.2867 H            1    LIG   0.0000
  54 H            3.0775    -5.6367    -1.6878 H            1    LIG   0.0000
@<TRIPOS>BOND
   1        1        2 1
   2        2        3 1
   3        3        4 ar
   4        4        5 ar
   5        5        6 1
   6        6        7 1
   7        7        8 1
   8        8        9 2
   9        8       10 am
  10       10       11 1
  11       11       12 ar
  12       12       13 ar
  13       13       14 ar
  14       14       15 ar
  15       15       16 1
  16       15       17 ar
  17       17       11 ar
  18       10       18 am
  19       18       19 2
  20       18       20 1
  21       20        7 1
  22       20       21 1
  23       21       22 1
  24       22        6 1
  25       22       23 1
  26       23       24 ar
  27       24       25 ar
  28       25       26 ar
  29       26       27 ar
  30       27       28 ar
  31       28       23 ar
  32        5       29 ar
  33       29       30 ar
  34       30       31 ar
  35       31        3 ar
  36       31       32 1
  37        6       33 1
  38        7       34 1
  39       20       35 1
  40        1       36 1
  41        1       37 1
  42        1       38 1
  43        4       39 1
  44       12       40 1
  45       13       41 1
  46       14       42 1
  47       16       43 1
  48       16       44 1
  49       16       45 1
  50       17       46 1
  51       24       47 1
  52       25       48 1
  53       26       49 1
  54       27       50 1
  55       28       51 1
  56       29       52 1
  57       30       53 1
  58       32       54 1

@<TRIPOS>MOLECULE

  54   58
SMALL
USER_CHARGES
@<TRIPOS>ATOM
   1 C1           2.8170    -4.3063     3.2801 C.3          1    LIG   0.0000
   2 O2           2.9159    -4.7409     1.9318 O.3          1    LIG   0.0000
   3 C3           2.5266    -3.8436     1.0021 C.ar         1    LIG   0.0000
   4 C4           2.0684    -2.5930     1.4001 C.ar         1    LIG   0.0000
   5 C5           1.6719    -1.6847     0.4247 C.ar         1    LIG   0.0000
   6 C6           1.1692    -0.3144     0.8484 C.3          1    LIG   0.0000
   7 C7           2.2297     0.7342     0.5744 C.3          1    LIG   0.0000
   8 C8           3.0192     1.3242     1.7340 C.2          1    LIG   0.0000
   9 O9           3.8576     0.7314     2.3880 O.2          1    LIG   0.0000
  10 N10          2.6401     2.6514     1.9327 N.am         1    LIG   0.0000
  11 C11          3.1521     3.4855     2.9337 C.ar         1    LIG   0.0000
  12 C12          4.2817     4.2548     2.6739 C.ar         1    LIG   0.0000
  13 C13          4.7816     5.0794     3.6761 C.ar         1    LIG   0.0000
  14 C14          4.1663     5.1404     4.9218 C.ar         1    LIG   0.0000
  15 C15          3.0378     4.3626     5.1597 C.ar         1    LIG   0.0000
  16 C16          2.3585     4.4217     6.5182 C.3          1    LIG   0.0000
  17 C17          2.5211     3.5306     4.1723 C.ar         1    LIG   0.0000
  18 C18          1.6821     3.0359     0.9946 C.2          1    LIG   0.0000
  19 O19          1.1525     4.1382     0.9354 O.2          1    LIG   0.0000
  20 C20          1.3996     1.8879     0.0469 C.3          1    LIG   0.0000
  21 O21          0.0367     1.5019     0.0309 O.3          1    LIG   0.0000
  22 N22          0.0258     0.1368     0.0536 N.pl3        1    LIG   0.0000
  23 C23         -0.9186    -0.6855    -0.5728 C.ar         1    LIG   0.0000
  24 C24         -0.8065    -2.0679    -0.4658 C.ar         1    LIG   0.0000
  25 C25         -1.7487    -2.8771    -1.0919 C.ar         1    LIG   0.0000
  26 C26         -2.7894    -2.3024    -1.8154 C.ar         1    LIG   0.0000
  27 C27         -2.8939    -0.9190    -1.9169 C.ar         1    LIG   0.0000
  28 C28         -1.9553    -0.1024    -1.2942 C.ar         1    LIG   0.0000
  29 C29          1.7299    -2.0133    -0.9259 C.ar         1    LIG   0.0000
  30 C30          2.1887    -3.2666    -1.3175 C.ar         1    LIG   0.0000
  31 C31          2.5870    -4.1786    -0.3455 C.ar         1    LIG   0.0000
  32 O32          3.0340    -5.3955    -0.7183 O.3          1    LIG   0.0000
  33 H            0.9327    -0.3195     1.8200 H            1    LIG   0.0000
  34 H            2.8552     0.4105    -0.1355 H            1    LIG   0.0000
  35 H            1.6970     2.1275    -0.8773 H            1    LIG   0.0000
  36 H            3.1265    -5.0365     3.8892 H            1    LIG   0.0000
  37 H            3.3893    -3.4970     3.4122 H            1    LIG   0.0000
  38 H            1.8656    -4.0794     3.4882 H            1    LIG   0.0000
  39 H            2.0248    -2.3511     2.3694 H            1    LIG   0.0000
  40 H            4.7277     4.2154     1.7797 H            1    LIG   0.0000
  41 H            5.5936     5.6355     3.4987 H            1    LIG   0.0000
  42 H            4.5306     5.7360     5.6377 H            1    LIG   0.0000
  43 H            2.8497     5.0617     7.1090 H            1    LIG   0.0000
  44 H            1.4139     4.7301     6.4054 H            1    LIG   0.0000
  45 H            2.3648     3.5123     6.9339 H            1    LIG   0.0000
  46 H            1.7094     2.9741     4.3499 H            1    LIG   0.0000
  47 H           -0.0568    -2.4754     0.0555 H            1    LIG   0.0000
  48 H           -1.6783    -3.8721    -1.0222 H            1    LIG   0.0000
  49 H           -3.4653    -2.8868    -2.2644 H            1    LIG   0.0000
  50 H           -3.6440    -0.5113    -2.4376 H            1    LIG   0.0000
  51 H           -2.0251     0.8927    -1.3644 H            1    LIG   0.0000
  52 H            1.4416    -1.3486    -1.6151 H            1    LIG   0.0000
  53 H            2.2318    -3.5093    -2.2867 H            1    LIG   0.0000
  54 H            3.0775    -5.6367    -1.6878 H            1    LIG   0.0000
@<TRIPOS>BOND
   1        1        2 1
   2        2        3 1
   3        3        4 ar
   4        4        5 ar
   5        5        6 1
   6        6        7 1
   7        7        8 1
   8        8        9 2
   9        8       10 am
  10       10       11 1
  11       11       12 ar
  12       12       13 ar
  13       13       14 ar
  14       14       15 ar
  15       15       16 1
  16       15       17 ar
  17       17       11 ar
  18       10       18 am
  19       18       19 2
  20       18       20 1
  21       20        7 1
  22       20       21 1
  23       21       22 1
  24       22        6 1
  25       22       23 1
  26       23       24 ar
  27       24       25 ar
  28       25       26 ar
  29       26       27 ar
  30       27       28 ar
  31       28       23 ar
  32        5       29 ar
  33       29       30 ar
  34       30       31 ar
  35       31        3 ar
  36       31       32 1
  37        6       33 1
  38        7       34 1
  39       20       35 1
  40        1       36 1
  41        1       37 1
  42        1       38 1
  43        4       39 1
  44       12       40 1
  45       13       41 1
  46       14       42 1
  47       16       43 1
  48       16       44 1
  49       16       45 1
  50       17       46 1
  51       24       47 1
  52       25       48 1
  53       26       49 1
  54       27       50 1
  55       28       51 1
  56       29       52 1
  57       30       53 1
  58       32       54 1

