@<TRIPOS>MOLECULE
*****
 54 58 0 0 0
SMALL
USER_CHARGES

@<TRIPOS>ATOM
      1 C1          2.5602    1.5221   -4.3121 C.3     1  LIG1        0.0000
      2 O2          3.5902    0.5649   -4.1141 O.2     1  LIG1        0.0000
      3 C3          3.7448    0.1318   -2.8454 C.3     1  LIG1        0.0000
      4 C4          2.9197    0.6272   -1.8422 C.3     1  LIG1        0.0000
      5 C5          3.0975    0.1670   -0.5422 C.3     1  LIG1        0.0000
      6 C6          2.2012    0.7019    0.5626 C.3     1  LIG1        0.0000
      7 C7          1.4289    1.8852    0.0179 C.3     1  LIG1        0.0000
      8 C8          1.4686    3.0097    1.0335 C.2     1  LIG1        0.0000
      9 O9          2.4254    3.7434    1.2171 O.2     1  LIG1        0.0000
     10 N10         0.2692    3.0822    1.7288 N.am    1  LIG1        0.0000
     11 C11         0.0163    3.9584    2.7910 C.3     1  LIG1        0.0000
     12 C12        -1.2303    3.9456    3.4085 C.3     1  LIG1        0.0000
     13 C13        -1.4702    4.8206    4.4625 C.3     1  LIG1        0.0000
     14 C14        -0.4832    5.6978    4.8993 C.3     1  LIG1        0.0000
     15 C15         0.7560    5.6934    4.2675 C.3     1  LIG1        0.0000
     16 C16         1.8411    6.6487    4.7370 C.3     1  LIG1        0.0000
     17 C17         1.0177    4.8272    3.2112 C.3     1  LIG1        0.0000
     18 C18        -0.6451    2.1621    1.2100 C.2     1  LIG1        0.0000
     19 O19        -1.7677    1.9664    1.6402 O.2     1  LIG1        0.0000
     20 C20        -0.0194    1.4521    0.0246 C.3     1  LIG1        0.0000
     21 O21         0.0258    0.0391    0.1142 O.3     1  LIG1        0.0000
     22 N22         1.1302   -0.2515    0.8622 N.3     1  LIG1        0.0000
     23 C23         1.2233   -1.3009    1.7847 C.3     1  LIG1        0.0000
     24 C24         2.4072   -1.4955    2.4886 C.3     1  LIG1        0.0000
     25 C25         2.4910   -2.5408    3.4023 C.3     1  LIG1        0.0000
     26 C26         1.3981   -3.3781    3.6047 C.3     1  LIG1        0.0000
     27 C27         0.2180   -3.1759    2.8965 C.3     1  LIG1        0.0000
     28 C28         0.1259   -2.1331    1.9802 C.3     1  LIG1        0.0000
     29 C29         4.0799   -0.7714   -0.2427 C.3     1  LIG1        0.0000
     30 C30         4.9027   -1.2627   -1.2509 C.3     1  LIG1        0.0000
     31 C31         4.7283   -0.8058   -2.5532 C.3     1  LIG1        0.0000
     32 O32         5.5221   -1.2789   -3.5360 O.2     1  LIG1        0.0000
     33 H           2.7233    0.9435    1.3805 H       1  LIG1        0.0000
     34 H           1.7439    2.1697   -0.8876 H       1  LIG1        0.0000
     35 H          -0.4688    1.7316   -0.8239 H       1  LIG1        0.0000
     36 H           2.5250    1.7789   -5.2779 H       1  LIG1        0.0000
     37 H           1.6823    1.1283   -4.0396 H       1  LIG1        0.0000
     38 H           2.7480    2.3332   -3.7581 H       1  LIG1        0.0000
     39 H           2.2116    1.3016   -2.0516 H       1  LIG1        0.0000
     40 H          -1.9433    3.3165    3.0990 H       1  LIG1        0.0000
     41 H          -2.3635    4.8191    4.9119 H       1  LIG1        0.0000
     42 H          -0.6622    6.3239    5.6582 H       1  LIG1        0.0000
     43 H           1.4953    7.1979    5.4978 H       1  LIG1        0.0000
     44 H           2.6381    6.1255    5.0388 H       1  LIG1        0.0000
     45 H           2.1038    7.2512    3.9833 H       1  LIG1        0.0000
     46 H           1.9108    4.8292    2.7614 H       1  LIG1        0.0000
     47 H           3.1894   -0.8906    2.3393 H       1  LIG1        0.0000
     48 H           3.3370   -2.6907    3.9140 H       1  LIG1        0.0000
     49 H           1.4614   -4.1288    4.2623 H       1  LIG1        0.0000
     50 H          -0.5645   -3.7803    3.0461 H       1  LIG1        0.0000
     51 H          -0.7197   -1.9835    1.4678 H       1  LIG1        0.0000
     52 H           4.1946   -1.0927    0.6973 H       1  LIG1        0.0000
     53 H           5.6114   -1.9366   -1.0419 H       1  LIG1        0.0000
     54 H           6.2298   -1.9534   -3.3260 H       1  LIG1        0.0000
@<TRIPOS>BOND
     1     1     2    1
     2     2     3    1
     3     3     4   ar
     4     4     5   ar
     5     5     6    1
     6     6     7    1
     7     7     8    1
     8     8     9    2
     9     8    10   am
    10    10    11    1
    11    11    12   ar
    12    12    13   ar
    13    13    14   ar
    14    14    15   ar
    15    15    16    1
    16    15    17   ar
    17    17    11   ar
    18    10    18   am
    19    18    19    2
    20    18    20    1
    21    20     7    1
    22    20    21    1
    23    21    22    1
    24    22     6    1
    25    22    23    1
    26    23    24   ar
    27    24    25   ar
    28    25    26   ar
    29    26    27   ar
    30    27    28   ar
    31    28    23   ar
    32     5    29   ar
    33    29    30   ar
    34    30    31   ar
    35    31     3   ar
    36    31    32    1
    37     6    33    1
    38     7    34    1
    39    20    35    1
    40     1    36    1
    41     1    37    1
    42     1    38    1
    43     4    39    1
    44    12    40    1
    45    13    41    1
    46    14    42    1
    47    16    43    1
    48    16    44    1
    49    16    45    1
    50    17    46    1
    51    24    47    1
    52    25    48    1
    53    26    49    1
    54    27    50    1
    55    28    51    1
    56    29    52    1
    57    30    53    1
    58    32    54    1
