@<TRIPOS>MOLECULE
*****
 54 58 0 0 0
SMALL
USER_CHARGES

@<TRIPOS>ATOM
      1 C1         -2.0193    0.5733    4.5171 C.3     1  LIG1        0.0000
      2 O2         -2.9545   -0.2864    3.8824 O.2     1  LIG1        0.0000
      3 C3         -2.6503   -0.6428    2.6169 C.3     1  LIG1        0.0000
      4 C4         -1.4842   -0.1674    2.0280 C.3     1  LIG1        0.0000
      5 C5         -1.1914   -0.5473    0.7229 C.3     1  LIG1        0.0000
      6 C6          0.0807   -0.0334    0.0689 C.3     1  LIG1        0.0000
      7 C7          0.0071    1.4809    0.0172 C.3     1  LIG1        0.0000
      8 C8         -0.5222    1.9563   -1.3342 C.2     1  LIG1        0.0000
      9 O9         -1.6866    1.9370   -1.6911 O.2     1  LIG1        0.0000
     10 N10         0.5408    2.4206   -2.1117 N.am    1  LIG1        0.0000
     11 C11         0.4381    2.8800   -3.4302 C.3     1  LIG1        0.0000
     12 C12         0.5786    1.9809   -4.4825 C.3     1  LIG1        0.0000
     13 C13         0.4750    2.4487   -5.7881 C.3     1  LIG1        0.0000
     14 C14         0.2337    3.7939   -6.0461 C.3     1  LIG1        0.0000
     15 C15         0.0965    4.6753   -4.9787 C.3     1  LIG1        0.0000
     16 C16        -0.1668    6.1475   -5.2503 C.3     1  LIG1        0.0000
     17 C17         0.1968    4.2294   -3.6651 C.3     1  LIG1        0.0000
     18 C18         1.7173    2.3511   -1.3662 C.2     1  LIG1        0.0000
     19 O19         2.8265    2.6498   -1.8022 O.2     1  LIG1        0.0000
     20 C20         1.4681    1.8734    0.0492 C.3     1  LIG1        0.0000
     21 O21         2.1668    0.7355    0.5499 O.3     1  LIG1        0.0000
     22 N22         1.2637   -0.2265    0.8969 N.3     1  LIG1        0.0000
     23 C23         1.4225   -1.2335    1.8568 C.3     1  LIG1        0.0000
     24 C24         0.3898   -2.1375    2.0833 C.3     1  LIG1        0.0000
     25 C25         0.5560   -3.1341    3.0392 C.3     1  LIG1        0.0000
     26 C26         1.7453   -3.2195    3.7567 C.3     1  LIG1        0.0000
     27 C27         2.7729   -2.3114    3.5233 C.3     1  LIG1        0.0000
     28 C28         2.6146   -1.3111    2.5694 C.3     1  LIG1        0.0000
     29 C29        -2.0437   -1.3872    0.0131 C.3     1  LIG1        0.0000
     30 C30        -3.2092   -1.8590    0.6079 C.3     1  LIG1        0.0000
     31 C31        -3.5063   -1.4821    1.9136 C.3     1  LIG1        0.0000
     32 O32        -4.6345   -1.9368    2.4968 O.2     1  LIG1        0.0000
     33 H           0.2057   -0.4241   -0.8430 H       1  LIG1        0.0000
     34 H          -0.5074    1.8641    0.7843 H       1  LIG1        0.0000
     35 H           1.5896    2.6387    0.6812 H       1  LIG1        0.0000
     36 H          -2.3315    0.7787    5.4446 H       1  LIG1        0.0000
     37 H          -1.1272    0.1234    4.5576 H       1  LIG1        0.0000
     38 H          -1.9408    1.4231    3.9959 H       1  LIG1        0.0000
     39 H          -0.8677    0.4363    2.5334 H       1  LIG1        0.0000
     40 H           0.7515    1.0125   -4.3027 H       1  LIG1        0.0000
     41 H           0.5753    1.8099   -6.5509 H       1  LIG1        0.0000
     42 H           0.1597    4.1235   -6.9873 H       1  LIG1        0.0000
     43 H          -0.2104    6.3018   -6.2373 H       1  LIG1        0.0000
     44 H          -1.0357    6.4133   -4.8326 H       1  LIG1        0.0000
     45 H           0.5725    6.6960   -4.8595 H       1  LIG1        0.0000
     46 H           0.0971    4.8683   -2.9023 H       1  LIG1        0.0000
     47 H          -0.4626   -2.0716    1.5647 H       1  LIG1        0.0000
     48 H          -0.1795   -3.7895    3.2110 H       1  LIG1        0.0000
     49 H           1.8618   -3.9372    4.4433 H       1  LIG1        0.0000
     50 H           3.6256   -2.3776    4.0414 H       1  LIG1        0.0000
     51 H           3.3497   -0.6551    2.3981 H       1  LIG1        0.0000
     52 H          -1.8184   -1.6516   -0.9246 H       1  LIG1        0.0000
     53 H          -3.8265   -2.4621    0.1027 H       1  LIG1        0.0000
     54 H          -5.2505   -2.5406    1.9910 H       1  LIG1        0.0000
@<TRIPOS>BOND
     1     1     2    1
     2     2     3    1
     3     3     4   ar
     4     4     5   ar
     5     5     6    1
     6     6     7    1
     7     7     8    1
     8     8     9    2
     9     8    10   am
    10    10    11    1
    11    11    12   ar
    12    12    13   ar
    13    13    14   ar
    14    14    15   ar
    15    15    16    1
    16    15    17   ar
    17    17    11   ar
    18    10    18   am
    19    18    19    2
    20    18    20    1
    21    20     7    1
    22    20    21    1
    23    21    22    1
    24    22     6    1
    25    22    23    1
    26    23    24   ar
    27    24    25   ar
    28    25    26   ar
    29    26    27   ar
    30    27    28   ar
    31    28    23   ar
    32     5    29   ar
    33    29    30   ar
    34    30    31   ar
    35    31     3   ar
    36    31    32    1
    37     6    33    1
    38     7    34    1
    39    20    35    1
    40     1    36    1
    41     1    37    1
    42     1    38    1
    43     4    39    1
    44    12    40    1
    45    13    41    1
    46    14    42    1
    47    16    43    1
    48    16    44    1
    49    16    45    1
    50    17    46    1
    51    24    47    1
    52    25    48    1
    53    26    49    1
    54    27    50    1
    55    28    51    1
    56    29    52    1
    57    30    53    1
    58    32    54    1
