@<TRIPOS>MOLECULE
*****
 54 58 0 0 0
SMALL
USER_CHARGES

@<TRIPOS>ATOM
      1 C1          2.8170   -4.3063    3.2801 C.3     1  LIG1        0.0000
      2 O2          2.9159   -4.7409    1.9318 O.2     1  LIG1        0.0000
      3 C3          2.5266   -3.8436    1.0021 C.3     1  LIG1        0.0000
      4 C4          2.0684   -2.5930    1.4001 C.3     1  LIG1        0.0000
      5 C5          1.6719   -1.6847    0.4247 C.3     1  LIG1        0.0000
      6 C6          1.1692   -0.3144    0.8484 C.3     1  LIG1        0.0000
      7 C7          2.2297    0.7342    0.5744 C.3     1  LIG1        0.0000
      8 C8          3.0192    1.3242    1.7340 C.2     1  LIG1        0.0000
      9 O9          3.8576    0.7314    2.3880 O.2     1  LIG1        0.0000
     10 N10         2.6401    2.6514    1.9327 N.am    1  LIG1        0.0000
     11 C11         3.1521    3.4855    2.9337 C.3     1  LIG1        0.0000
     12 C12         4.2817    4.2548    2.6739 C.3     1  LIG1        0.0000
     13 C13         4.7816    5.0794    3.6761 C.3     1  LIG1        0.0000
     14 C14         4.1663    5.1404    4.9218 C.3     1  LIG1        0.0000
     15 C15         3.0378    4.3626    5.1597 C.3     1  LIG1        0.0000
     16 C16         2.3585    4.4217    6.5182 C.3     1  LIG1        0.0000
     17 C17         2.5211    3.5306    4.1723 C.3     1  LIG1        0.0000
     18 C18         1.6821    3.0359    0.9946 C.2     1  LIG1        0.0000
     19 O19         1.1525    4.1382    0.9354 O.2     1  LIG1        0.0000
     20 C20         1.3996    1.8879    0.0469 C.3     1  LIG1        0.0000
     21 O21         0.0367    1.5019    0.0309 O.3     1  LIG1        0.0000
     22 N22         0.0258    0.1368    0.0536 N.3     1  LIG1        0.0000
     23 C23        -0.9186   -0.6855   -0.5728 C.3     1  LIG1        0.0000
     24 C24        -0.8065   -2.0679   -0.4658 C.3     1  LIG1        0.0000
     25 C25        -1.7487   -2.8771   -1.0919 C.3     1  LIG1        0.0000
     26 C26        -2.7894   -2.3024   -1.8154 C.3     1  LIG1        0.0000
     27 C27        -2.8939   -0.9190   -1.9169 C.3     1  LIG1        0.0000
     28 C28        -1.9553   -0.1024   -1.2942 C.3     1  LIG1        0.0000
     29 C29         1.7299   -2.0133   -0.9259 C.3     1  LIG1        0.0000
     30 C30         2.1887   -3.2666   -1.3175 C.3     1  LIG1        0.0000
     31 C31         2.5870   -4.1786   -0.3455 C.3     1  LIG1        0.0000
     32 O32         3.0340   -5.3955   -0.7183 O.2     1  LIG1        0.0000
     33 H           0.9327   -0.3195    1.8200 H       1  LIG1        0.0000
     34 H           2.8552    0.4105   -0.1355 H       1  LIG1        0.0000
     35 H           1.6970    2.1275   -0.8773 H       1  LIG1        0.0000
     36 H           3.1265   -5.0365    3.8892 H       1  LIG1        0.0000
     37 H           3.3893   -3.4970    3.4122 H       1  LIG1        0.0000
     38 H           1.8656   -4.0794    3.4882 H       1  LIG1        0.0000
     39 H           2.0248   -2.3511    2.3694 H       1  LIG1        0.0000
     40 H           4.7277    4.2154    1.7797 H       1  LIG1        0.0000
     41 H           5.5936    5.6355    3.4987 H       1  LIG1        0.0000
     42 H           4.5306    5.7360    5.6377 H       1  LIG1        0.0000
     43 H           2.8497    5.0617    7.1090 H       1  LIG1        0.0000
     44 H           1.4139    4.7301    6.4054 H       1  LIG1        0.0000
     45 H           2.3648    3.5123    6.9339 H       1  LIG1        0.0000
     46 H           1.7094    2.9741    4.3499 H       1  LIG1        0.0000
     47 H          -0.0568   -2.4754    0.0555 H       1  LIG1        0.0000
     48 H          -1.6783   -3.8721   -1.0222 H       1  LIG1        0.0000
     49 H          -3.4653   -2.8868   -2.2644 H       1  LIG1        0.0000
     50 H          -3.6440   -0.5113   -2.4376 H       1  LIG1        0.0000
     51 H          -2.0251    0.8927   -1.3644 H       1  LIG1        0.0000
     52 H           1.4416   -1.3486   -1.6151 H       1  LIG1        0.0000
     53 H           2.2318   -3.5093   -2.2867 H       1  LIG1        0.0000
     54 H           3.0775   -5.6367   -1.6878 H       1  LIG1        0.0000
@<TRIPOS>BOND
     1     1     2    1
     2     2     3    1
     3     3     4   ar
     4     4     5   ar
     5     5     6    1
     6     6     7    1
     7     7     8    1
     8     8     9    2
     9     8    10   am
    10    10    11    1
    11    11    12   ar
    12    12    13   ar
    13    13    14   ar
    14    14    15   ar
    15    15    16    1
    16    15    17   ar
    17    17    11   ar
    18    10    18   am
    19    18    19    2
    20    18    20    1
    21    20     7    1
    22    20    21    1
    23    21    22    1
    24    22     6    1
    25    22    23    1
    26    23    24   ar
    27    24    25   ar
    28    25    26   ar
    29    26    27   ar
    30    27    28   ar
    31    28    23   ar
    32     5    29   ar
    33    29    30   ar
    34    30    31   ar
    35    31     3   ar
    36    31    32    1
    37     6    33    1
    38     7    34    1
    39    20    35    1
    40     1    36    1
    41     1    37    1
    42     1    38    1
    43     4    39    1
    44    12    40    1
    45    13    41    1
    46    14    42    1
    47    16    43    1
    48    16    44    1
    49    16    45    1
    50    17    46    1
    51    24    47    1
    52    25    48    1
    53    26    49    1
    54    27    50    1
    55    28    51    1
    56    29    52    1
    57    30    53    1
    58    32    54    1
