@<TRIPOS>MOLECULE
*****
 54 58 0 0 0
SMALL
USER_CHARGES

@<TRIPOS>ATOM
      1 C1          0.6019    5.4009    3.0085 C.3     1  LIG1        0.0000
      2 O2         -0.5197    4.7622    3.6006 O.2     1  LIG1        0.0000
      3 C3         -0.9330    3.6314    2.9912 C.3     1  LIG1        0.0000
      4 C4         -0.2643    3.1725    1.8621 C.3     1  LIG1        0.0000
      5 C5         -0.7083    2.0054    1.2503 C.3     1  LIG1        0.0000
      6 C6          0.0151    1.4945    0.0152 C.3     1  LIG1        0.0000
      7 C7          1.4697    1.9209   -0.0002 C.3     1  LIG1        0.0000
      8 C8          2.0916    2.1501   -1.3713 C.2     1  LIG1        0.0000
      9 O9          1.8177    3.0814   -2.1103 O.2     1  LIG1        0.0000
     10 N10         3.0237    1.1541   -1.6564 N.am    1  LIG1        0.0000
     11 C11         3.7662    1.0523   -2.8389 C.3     1  LIG1        0.0000
     12 C12         5.0029    1.6831   -2.9284 C.3     1  LIG1        0.0000
     13 C13         5.7315    1.5753   -4.1082 C.3     1  LIG1        0.0000
     14 C14         5.2382    0.8487   -5.1866 C.3     1  LIG1        0.0000
     15 C15         3.9994    0.2260   -5.0751 C.3     1  LIG1        0.0000
     16 C16         3.4512   -0.5700   -6.2483 C.3     1  LIG1        0.0000
     17 C17         3.2536    0.3209   -3.9049 C.3     1  LIG1        0.0000
     18 C18         3.1024    0.2765   -0.5759 C.2     1  LIG1        0.0000
     19 O19         3.8340   -0.7031   -0.5318 O.2     1  LIG1        0.0000
     20 C20         2.1801    0.7045    0.5484 C.3     1  LIG1        0.0000
     21 O21         1.2056   -0.2851    0.8536 O.3     1  LIG1        0.0000
     22 N22         0.0974    0.0375    0.1264 N.3     1  LIG1        0.0000
     23 C23        -0.8227   -0.8650   -0.4211 C.3     1  LIG1        0.0000
     24 C24        -1.9108   -0.3858   -1.1430 C.3     1  LIG1        0.0000
     25 C25        -2.8201   -1.2894   -1.6826 C.3     1  LIG1        0.0000
     26 C26        -2.6361   -2.6564   -1.4983 C.3     1  LIG1        0.0000
     27 C27        -1.5448   -3.1268   -0.7752 C.3     1  LIG1        0.0000
     28 C28        -0.6309   -2.2297   -0.2315 C.3     1  LIG1        0.0000
     29 C29        -1.8000    1.3042    1.7524 C.3     1  LIG1        0.0000
     30 C30        -2.4651    1.7690    2.8822 C.3     1  LIG1        0.0000
     31 C31        -2.0244    2.9358    3.4981 C.3     1  LIG1        0.0000
     32 O32        -2.6642    3.3917    4.5947 O.2     1  LIG1        0.0000
     33 H          -0.4549    1.7705   -0.8232 H       1  LIG1        0.0000
     34 H           1.6138    2.7135    0.5921 H       1  LIG1        0.0000
     35 H           2.7070    0.9428    1.3643 H       1  LIG1        0.0000
     36 H           0.8300    6.2239    3.5288 H       1  LIG1        0.0000
     37 H           1.3826    4.7760    3.0140 H       1  LIG1        0.0000
     38 H           0.3830    5.6524    2.0658 H       1  LIG1        0.0000
     39 H           0.5211    3.6722    1.4969 H       1  LIG1        0.0000
     40 H           5.3628    2.2062   -2.1558 H       1  LIG1        0.0000
     41 H           6.6212    2.0260   -4.1820 H       1  LIG1        0.0000
     42 H           5.7676    0.7747   -6.0317 H       1  LIG1        0.0000
     43 H           4.1036   -0.5396   -7.0055 H       1  LIG1        0.0000
     44 H           3.3085   -1.5196   -5.9692 H       1  LIG1        0.0000
     45 H           2.5810   -0.1744   -6.5419 H       1  LIG1        0.0000
     46 H           2.3636   -0.1293   -3.8313 H       1  LIG1        0.0000
     47 H          -2.0380    0.5976   -1.2725 H       1  LIG1        0.0000
     48 H          -3.6064   -0.9567   -2.2033 H       1  LIG1        0.0000
     49 H          -3.2915   -3.3037   -1.8875 H       1  LIG1        0.0000
     50 H          -1.4171   -4.1102   -0.6461 H       1  LIG1        0.0000
     51 H           0.1550   -2.5622    0.2899 H       1  LIG1        0.0000
     52 H          -2.1064    0.4661    1.3012 H       1  LIG1        0.0000
     53 H          -3.2510    1.2700    3.2474 H       1  LIG1        0.0000
     54 H          -3.4495    2.8914    4.9596 H       1  LIG1        0.0000
@<TRIPOS>BOND
     1     1     2    1
     2     2     3    1
     3     3     4   ar
     4     4     5   ar
     5     5     6    1
     6     6     7    1
     7     7     8    1
     8     8     9    2
     9     8    10   am
    10    10    11    1
    11    11    12   ar
    12    12    13   ar
    13    13    14   ar
    14    14    15   ar
    15    15    16    1
    16    15    17   ar
    17    17    11   ar
    18    10    18   am
    19    18    19    2
    20    18    20    1
    21    20     7    1
    22    20    21    1
    23    21    22    1
    24    22     6    1
    25    22    23    1
    26    23    24   ar
    27    24    25   ar
    28    25    26   ar
    29    26    27   ar
    30    27    28   ar
    31    28    23   ar
    32     5    29   ar
    33    29    30   ar
    34    30    31   ar
    35    31     3   ar
    36    31    32    1
    37     6    33    1
    38     7    34    1
    39    20    35    1
    40     1    36    1
    41     1    37    1
    42     1    38    1
    43     4    39    1
    44    12    40    1
    45    13    41    1
    46    14    42    1
    47    16    43    1
    48    16    44    1
    49    16    45    1
    50    17    46    1
    51    24    47    1
    52    25    48    1
    53    26    49    1
    54    27    50    1
    55    28    51    1
    56    29    52    1
    57    30    53    1
    58    32    54    1
