@<TRIPOS>MOLECULE
*****
 54 58 0 0 0
SMALL
USER_CHARGES

@<TRIPOS>ATOM
      1 C1         -1.9188   -0.5978    4.0894 C.3     1  LIG1        0.0000
      2 O2         -2.1930    0.7751    4.3268 O.2     1  LIG1        0.0000
      3 C3         -1.7718    1.6259    3.3679 C.3     1  LIG1        0.0000
      4 C4         -1.1186    1.1308    2.2451 C.3     1  LIG1        0.0000
      5 C5         -0.6928    2.0262    1.2702 C.3     1  LIG1        0.0000
      6 C6          0.0226    1.4961    0.0385 C.3     1  LIG1        0.0000
      7 C7          1.4802    1.9073    0.0095 C.3     1  LIG1        0.0000
      8 C8          2.1339    2.1039   -1.3437 C.2     1  LIG1        0.0000
      9 O9          1.9546    3.0636   -2.0654 O.2     1  LIG1        0.0000
     10 N10         2.9941    1.0483   -1.6436 N.am    1  LIG1        0.0000
     11 C11         3.6988    0.8972   -2.8439 C.3     1  LIG1        0.0000
     12 C12         3.5603    1.8528   -3.8453 C.3     1  LIG1        0.0000
     13 C13         4.2650    1.6921   -5.0335 C.3     1  LIG1        0.0000
     14 C14         5.0986    0.5954   -5.2249 C.3     1  LIG1        0.0000
     15 C15         5.2223   -0.3478   -4.2101 C.3     1  LIG1        0.0000
     16 C16         6.1305   -1.5502   -4.4098 C.3     1  LIG1        0.0000
     17 C17         4.5266   -0.2074   -3.0139 C.3     1  LIG1        0.0000
     18 C18         3.0519    0.1603   -0.5708 C.2     1  LIG1        0.0000
     19 O19         3.6952   -0.8738   -0.5350 O.2     1  LIG1        0.0000
     20 C20         2.2096    0.7060    0.5644 C.3     1  LIG1        0.0000
     21 O21         1.2269   -0.2608    0.8934 O.3     1  LIG1        0.0000
     22 N22         0.1081    0.0434    0.1688 N.3     1  LIG1        0.0000
     23 C23        -0.8099   -0.8699   -0.3640 C.3     1  LIG1        0.0000
     24 C24        -1.9060   -0.4042   -1.0828 C.3     1  LIG1        0.0000
     25 C25        -2.8132   -1.3185   -1.6078 C.3     1  LIG1        0.0000
     26 C26        -2.6194   -2.6826   -1.4120 C.3     1  LIG1        0.0000
     27 C27        -1.5203   -3.1394   -0.6920 C.3     1  LIG1        0.0000
     28 C28        -0.6084   -2.2315   -0.1630 C.3     1  LIG1        0.0000
     29 C29        -0.9127    3.3930    1.4079 C.3     1  LIG1        0.0000
     30 C30        -1.5665    3.8821    2.5340 C.3     1  LIG1        0.0000
     31 C31        -1.9947    2.9902    3.5119 C.3     1  LIG1        0.0000
     32 O32        -2.6303    3.4577    4.6062 O.2     1  LIG1        0.0000
     33 H          -0.4497    1.7614   -0.8021 H       1  LIG1        0.0000
     34 H           1.6301    2.7073    0.5905 H       1  LIG1        0.0000
     35 H           2.7698    0.9476    1.3568 H       1  LIG1        0.0000
     36 H          -2.2673   -1.1440    4.8512 H       1  LIG1        0.0000
     37 H          -2.3649   -0.8851    3.2418 H       1  LIG1        0.0000
     38 H          -0.9311   -0.7312    4.0081 H       1  LIG1        0.0000
     39 H          -0.9579    0.1494    2.1405 H       1  LIG1        0.0000
     40 H           2.9628    2.6437   -3.7128 H       1  LIG1        0.0000
     41 H           4.1711    2.3736   -5.7593 H       1  LIG1        0.0000
     42 H           5.6030    0.4864   -6.0815 H       1  LIG1        0.0000
     43 H           6.5531   -1.5021   -5.3148 H       1  LIG1        0.0000
     44 H           6.8434   -1.5496   -3.7085 H       1  LIG1        0.0000
     45 H           5.5924   -2.3900   -4.3374 H       1  LIG1        0.0000
     46 H           4.6201   -0.8891   -2.2884 H       1  LIG1        0.0000
     47 H          -2.0402    0.5771   -1.2206 H       1  LIG1        0.0000
     48 H          -3.6051   -0.9956   -2.1261 H       1  LIG1        0.0000
     49 H          -3.2733   -3.3375   -1.7907 H       1  LIG1        0.0000
     50 H          -1.3855   -4.1207   -0.5547 H       1  LIG1        0.0000
     51 H           0.1831   -2.5542    0.3560 H       1  LIG1        0.0000
     52 H          -0.6009    4.0238    0.6974 H       1  LIG1        0.0000
     53 H          -1.7267    4.8636    2.6395 H       1  LIG1        0.0000
     54 H          -2.7908    4.4392    4.7100 H       1  LIG1        0.0000
@<TRIPOS>BOND
     1     1     2    1
     2     2     3    1
     3     3     4   ar
     4     4     5   ar
     5     5     6    1
     6     6     7    1
     7     7     8    1
     8     8     9    2
     9     8    10   am
    10    10    11    1
    11    11    12   ar
    12    12    13   ar
    13    13    14   ar
    14    14    15   ar
    15    15    16    1
    16    15    17   ar
    17    17    11   ar
    18    10    18   am
    19    18    19    2
    20    18    20    1
    21    20     7    1
    22    20    21    1
    23    21    22    1
    24    22     6    1
    25    22    23    1
    26    23    24   ar
    27    24    25   ar
    28    25    26   ar
    29    26    27   ar
    30    27    28   ar
    31    28    23   ar
    32     5    29   ar
    33    29    30   ar
    34    30    31   ar
    35    31     3   ar
    36    31    32    1
    37     6    33    1
    38     7    34    1
    39    20    35    1
    40     1    36    1
    41     1    37    1
    42     1    38    1
    43     4    39    1
    44    12    40    1
    45    13    41    1
    46    14    42    1
    47    16    43    1
    48    16    44    1
    49    16    45    1
    50    17    46    1
    51    24    47    1
    52    25    48    1
    53    26    49    1
    54    27    50    1
    55    28    51    1
    56    29    52    1
    57    30    53    1
    58    32    54    1
