@<TRIPOS>MOLECULE

  26   27
SMALL
USER_CHARGES
@<TRIPOS>ATOM
   1 O1           2.4992     2.1949    -1.0698 O.3          1    LIG   0.0000
   2 C2           3.1469     1.6023    -0.0439 C.ar         1    LIG   0.0000
   3 C3           4.5376     1.6005    -0.0442 C.ar         1    LIG   0.0000
   4 C4           5.2328     0.9982     0.9999 C.ar         1    LIG   0.0000
   5 C5           4.5365     0.3972     2.0437 C.ar         1    LIG   0.0000
   6 C6           3.1457     0.3974     2.0433 C.ar         1    LIG   0.0000
   7 C7           2.4502     1.0000     1.0000 C.ar         1    LIG   0.0000
   8 C8           1.0000     1.0000     1.0000 C.2          1    LIG   0.0000
   9 N9           0.3750    -0.0825     1.0003 N.2          1    LIG   0.0000
  10 C10          0.9883    -1.3399     1.0006 C.ar         1    LIG   0.0000
  11 C11          2.3109    -1.4567     0.5879 C.ar         1    LIG   0.0000
  12 C12          2.9043    -2.7146     0.5955 C.ar         1    LIG   0.0000
  13 F13          4.1679    -2.8438     0.2036 F            1    LIG   0.0000
  14 C14          2.1891    -3.8321     1.0090 C.ar         1    LIG   0.0000
  15 F15          2.7737    -5.0260     1.0107 F            1    LIG   0.0000
  16 C16          0.8665    -3.7166     1.4218 C.ar         1    LIG   0.0000
  17 C17          0.2744    -2.4589     1.4130 C.ar         1    LIG   0.0000
  18 I18         -1.7692    -2.2503     2.0462 I            1    LIG   0.0000
  19 H            3.0192     2.6218    -1.8096 H            1    LIG   0.0000
  20 H            5.0380     2.0320    -0.7948 H            1    LIG   0.0000
  21 H            6.2328     0.9974     1.0000 H            1    LIG   0.0000
  22 H            5.0362    -0.0351     2.7944 H            1    LIG   0.0000
  23 H            2.6456    -0.0356     2.7932 H            1    LIG   0.0000
  24 H            0.5000     1.8660     0.9998 H            1    LIG   0.0000
  25 H            2.8254    -0.6521     0.2914 H            1    LIG   0.0000
  26 H            0.3522    -4.5212     1.7187 H            1    LIG   0.0000
@<TRIPOS>BOND
   1        1        2 1
   2        2        3 ar
   3        3        4 ar
   4        4        5 ar
   5        5        6 ar
   6        6        7 ar
   7        7        2 ar
   8        7        8 1
   9        8        9 2
  10        9       10 1
  11       10       11 ar
  12       11       12 ar
  13       12       13 1
  14       12       14 ar
  15       14       15 1
  16       14       16 ar
  17       16       17 ar
  18       17       10 ar
  19       17       18 1
  20        1       19 1
  21        3       20 1
  22        4       21 1
  23        5       22 1
  24        6       23 1
  25        8       24 1
  26       11       25 1
  27       16       26 1

@<TRIPOS>MOLECULE

  26   27
SMALL
USER_CHARGES
@<TRIPOS>ATOM
   1 O1           2.4992     2.1949    -1.0698 O.3          1    LIG   0.0000
   2 C2           3.1469     1.6023    -0.0439 C.ar         1    LIG   0.0000
   3 C3           4.5376     1.6005    -0.0442 C.ar         1    LIG   0.0000
   4 C4           5.2328     0.9982     0.9999 C.ar         1    LIG   0.0000
   5 C5           4.5365     0.3972     2.0437 C.ar         1    LIG   0.0000
   6 C6           3.1457     0.3974     2.0433 C.ar         1    LIG   0.0000
   7 C7           2.4502     1.0000     1.0000 C.ar         1    LIG   0.0000
   8 C8           1.0000     1.0000     1.0000 C.2          1    LIG   0.0000
   9 N9           0.3750    -0.0825     1.0003 N.2          1    LIG   0.0000
  10 C10          0.9883    -1.3399     1.0006 C.ar         1    LIG   0.0000
  11 C11          1.2873    -1.9555     2.2110 C.ar         1    LIG   0.0000
  12 C12          1.8964    -3.2057     2.1918 C.ar         1    LIG   0.0000
  13 F13          2.1894    -3.8079     3.3401 F            1    LIG   0.0000
  14 C14          2.1985    -3.8275     0.9862 C.ar         1    LIG   0.0000
  15 F15          2.7794    -5.0232     0.9880 F            1    LIG   0.0000
  16 C16          1.9001    -3.2130    -0.2246 C.ar         1    LIG   0.0000
  17 C17          1.2920    -1.9631    -0.2041 C.ar         1    LIG   0.0000
  18 I18          0.8189    -0.9891    -2.0611 I            1    LIG   0.0000
  19 H            3.0192     2.6218    -1.8096 H            1    LIG   0.0000
  20 H            5.0380     2.0320    -0.7948 H            1    LIG   0.0000
  21 H            6.2328     0.9974     1.0000 H            1    LIG   0.0000
  22 H            5.0362    -0.0351     2.7944 H            1    LIG   0.0000
  23 H            2.6456    -0.0356     2.7932 H            1    LIG   0.0000
  24 H            0.5000     1.8660     0.9998 H            1    LIG   0.0000
  25 H            1.0688    -1.5081     3.0782 H            1    LIG   0.0000
  26 H            2.1182    -3.6605    -1.0919 H            1    LIG   0.0000
@<TRIPOS>BOND
   1        1        2 1
   2        2        3 ar
   3        3        4 ar
   4        4        5 ar
   5        5        6 ar
   6        6        7 ar
   7        7        2 ar
   8        7        8 1
   9        8        9 2
  10        9       10 1
  11       10       11 ar
  12       11       12 ar
  13       12       13 1
  14       12       14 ar
  15       14       15 1
  16       14       16 ar
  17       16       17 ar
  18       17       10 ar
  19       17       18 1
  20        1       19 1
  21        3       20 1
  22        4       21 1
  23        5       22 1
  24        6       23 1
  25        8       24 1
  26       11       25 1
  27       16       26 1

@<TRIPOS>MOLECULE

  26   27
SMALL
USER_CHARGES
@<TRIPOS>ATOM
   1 O1           2.4992     2.1949    -1.0698 O.3          1    LIG   0.0000
   2 C2           3.1469     1.6023    -0.0439 C.ar         1    LIG   0.0000
   3 C3           4.5376     1.6005    -0.0442 C.ar         1    LIG   0.0000
   4 C4           5.2328     0.9982     0.9999 C.ar         1    LIG   0.0000
   5 C5           4.5365     0.3972     2.0437 C.ar         1    LIG   0.0000
   6 C6           3.1457     0.3974     2.0433 C.ar         1    LIG   0.0000
   7 C7           2.4502     1.0000     1.0000 C.ar         1    LIG   0.0000
   8 C8           1.0000     1.0000     1.0000 C.2          1    LIG   0.0000
   9 N9           0.3750    -0.0825     1.0003 N.2          1    LIG   0.0000
  10 C10          0.9883    -1.3399     1.0006 C.ar         1    LIG   0.0000
  11 C11          1.2895    -1.9551    -0.2094 C.ar         1    LIG   0.0000
  12 C12          1.8997    -3.2047    -0.1896 C.ar         1    LIG   0.0000
  13 F13          2.1941    -3.8069    -1.3376 F            1    LIG   0.0000
  14 C14          2.2035    -3.8251     1.0163 C.ar         1    LIG   0.0000
  15 F15          2.7880    -5.0190     1.0151 F            1    LIG   0.0000
  16 C16          1.9026    -3.2111     2.2268 C.ar         1    LIG   0.0000
  17 C17          1.2920    -1.9624     2.2056 C.ar         1    LIG   0.0000
  18 I18          0.8154    -0.9892     4.0621 I            1    LIG   0.0000
  19 H            3.0192     2.6218    -1.8096 H            1    LIG   0.0000
  20 H            5.0380     2.0320    -0.7948 H            1    LIG   0.0000
  21 H            6.2328     0.9974     1.0000 H            1    LIG   0.0000
  22 H            5.0362    -0.0351     2.7944 H            1    LIG   0.0000
  23 H            2.6456    -0.0356     2.7932 H            1    LIG   0.0000
  24 H            0.5000     1.8660     0.9998 H            1    LIG   0.0000
  25 H            1.0717    -1.5078    -1.0769 H            1    LIG   0.0000
  26 H            2.1208    -3.6582     3.0943 H            1    LIG   0.0000
@<TRIPOS>BOND
   1        1        2 1
   2        2        3 ar
   3        3        4 ar
   4        4        5 ar
   5        5        6 ar
   6        6        7 ar
   7        7        2 ar
   8        7        8 1
   9        8        9 2
  10        9       10 1
  11       10       11 ar
  12       11       12 ar
  13       12       13 1
  14       12       14 ar
  15       14       15 1
  16       14       16 ar
  17       16       17 ar
  18       17       10 ar
  19       17       18 1
  20        1       19 1
  21        3       20 1
  22        4       21 1
  23        5       22 1
  24        6       23 1
  25        8       24 1
  26       11       25 1
  27       16       26 1

@<TRIPOS>MOLECULE

  26   27
SMALL
USER_CHARGES
@<TRIPOS>ATOM
   1 O1           2.4992     2.1951     3.0697 O.3          1    LIG   0.0000
   2 C2           3.1469     1.6029     2.0436 C.ar         1    LIG   0.0000
   3 C3           4.5376     1.6041     2.0421 C.ar         1    LIG   0.0000
   4 C4           5.2328     1.0010     0.9985 C.ar         1    LIG   0.0000
   5 C5           4.5365     0.3976    -0.0439 C.ar         1    LIG   0.0000
   6 C6           3.1457     0.3977    -0.0435 C.ar         1    LIG   0.0000
   7 C7           2.4502     1.0000     1.0000 C.ar         1    LIG   0.0000
   8 C8           1.0000     1.0000     1.0000 C.2          1    LIG   0.0000
   9 N9           0.3750    -0.0825     1.0003 N.2          1    LIG   0.0000
  10 C10          0.9883    -1.3399     1.0006 C.ar         1    LIG   0.0000
  11 C11          2.3102    -1.4569     1.4157 C.ar         1    LIG   0.0000
  12 C12          2.9031    -2.7149     1.4100 C.ar         1    LIG   0.0000
  13 F13          4.1663    -2.8441     1.8034 F            1    LIG   0.0000
  14 C14          2.1874    -3.8329     0.9987 C.ar         1    LIG   0.0000
  15 F15          2.7708    -5.0274     1.0014 F            1    LIG   0.0000
  16 C16          0.8657    -3.7173     0.5833 C.ar         1    LIG   0.0000
  17 C17          0.2744    -2.4592     0.5888 C.ar         1    LIG   0.0000
  18 I18         -1.7680    -2.2503    -0.0481 I            1    LIG   0.0000
  19 H            3.0192     2.6224     3.8093 H            1    LIG   0.0000
  20 H            5.0380     2.0383     2.7911 H            1    LIG   0.0000
  21 H            6.2328     1.0013     0.9977 H            1    LIG   0.0000
  22 H            5.0362    -0.0364    -0.7936 H            1    LIG   0.0000
  23 H            2.6456    -0.0351    -0.7935 H            1    LIG   0.0000
  24 H            0.5000     1.8660     0.9998 H            1    LIG   0.0000
  25 H            2.8245    -0.6522     1.7125 H            1    LIG   0.0000
  26 H            0.3513    -4.5220     0.2869 H            1    LIG   0.0000
@<TRIPOS>BOND
   1        1        2 1
   2        2        3 ar
   3        3        4 ar
   4        4        5 ar
   5        5        6 ar
   6        6        7 ar
   7        7        2 ar
   8        7        8 1
   9        8        9 2
  10        9       10 1
  11       10       11 ar
  12       11       12 ar
  13       12       13 1
  14       12       14 ar
  15       14       15 1
  16       14       16 ar
  17       16       17 ar
  18       17       10 ar
  19       17       18 1
  20        1       19 1
  21        3       20 1
  22        4       21 1
  23        5       22 1
  24        6       23 1
  25        8       24 1
  26       11       25 1
  27       16       26 1

@<TRIPOS>MOLECULE

  26   27
SMALL
USER_CHARGES
@<TRIPOS>ATOM
   1 O1           2.4992     2.1951     3.0697 O.3          1    LIG   0.0000
   2 C2           3.1469     1.6029     2.0436 C.ar         1    LIG   0.0000
   3 C3           4.5376     1.6041     2.0421 C.ar         1    LIG   0.0000
   4 C4           5.2328     1.0010     0.9985 C.ar         1    LIG   0.0000
   5 C5           4.5365     0.3976    -0.0439 C.ar         1    LIG   0.0000
   6 C6           3.1457     0.3977    -0.0435 C.ar         1    LIG   0.0000
   7 C7           2.4502     1.0000     1.0000 C.ar         1    LIG   0.0000
   8 C8           1.0000     1.0000     1.0000 C.2          1    LIG   0.0000
   9 N9           0.3750    -0.0825     1.0003 N.2          1    LIG   0.0000
  10 C10          0.9883    -1.3399     1.0006 C.ar         1    LIG   0.0000
  11 C11          1.2873    -1.9555     2.2110 C.ar         1    LIG   0.0000
  12 C12          1.8964    -3.2057     2.1918 C.ar         1    LIG   0.0000
  13 F13          2.1894    -3.8079     3.3401 F            1    LIG   0.0000
  14 C14          2.1985    -3.8275     0.9862 C.ar         1    LIG   0.0000
  15 F15          2.7794    -5.0232     0.9880 F            1    LIG   0.0000
  16 C16          1.9001    -3.2130    -0.2246 C.ar         1    LIG   0.0000
  17 C17          1.2920    -1.9631    -0.2041 C.ar         1    LIG   0.0000
  18 I18          0.8189    -0.9891    -2.0611 I            1    LIG   0.0000
  19 H            3.0192     2.6224     3.8093 H            1    LIG   0.0000
  20 H            5.0380     2.0383     2.7911 H            1    LIG   0.0000
  21 H            6.2328     1.0013     0.9977 H            1    LIG   0.0000
  22 H            5.0362    -0.0364    -0.7936 H            1    LIG   0.0000
  23 H            2.6456    -0.0351    -0.7935 H            1    LIG   0.0000
  24 H            0.5000     1.8660     0.9998 H            1    LIG   0.0000
  25 H            1.0688    -1.5081     3.0782 H            1    LIG   0.0000
  26 H            2.1182    -3.6605    -1.0919 H            1    LIG   0.0000
@<TRIPOS>BOND
   1        1        2 1
   2        2        3 ar
   3        3        4 ar
   4        4        5 ar
   5        5        6 ar
   6        6        7 ar
   7        7        2 ar
   8        7        8 1
   9        8        9 2
  10        9       10 1
  11       10       11 ar
  12       11       12 ar
  13       12       13 1
  14       12       14 ar
  15       14       15 1
  16       14       16 ar
  17       16       17 ar
  18       17       10 ar
  19       17       18 1
  20        1       19 1
  21        3       20 1
  22        4       21 1
  23        5       22 1
  24        6       23 1
  25        8       24 1
  26       11       25 1
  27       16       26 1

@<TRIPOS>MOLECULE

  26   27
SMALL
USER_CHARGES
@<TRIPOS>ATOM
   1 O1           2.4992     2.1951     3.0697 O.3          1    LIG   0.0000
   2 C2           3.1469     1.6029     2.0436 C.ar         1    LIG   0.0000
   3 C3           4.5376     1.6041     2.0421 C.ar         1    LIG   0.0000
   4 C4           5.2328     1.0010     0.9985 C.ar         1    LIG   0.0000
   5 C5           4.5365     0.3976    -0.0439 C.ar         1    LIG   0.0000
   6 C6           3.1457     0.3977    -0.0435 C.ar         1    LIG   0.0000
   7 C7           2.4502     1.0000     1.0000 C.ar         1    LIG   0.0000
   8 C8           1.0000     1.0000     1.0000 C.2          1    LIG   0.0000
   9 N9           0.3750    -0.0825     1.0003 N.2          1    LIG   0.0000
  10 C10          0.9883    -1.3399     1.0006 C.ar         1    LIG   0.0000
  11 C11          1.2895    -1.9551    -0.2094 C.ar         1    LIG   0.0000
  12 C12          1.8997    -3.2047    -0.1896 C.ar         1    LIG   0.0000
  13 F13          2.1941    -3.8069    -1.3376 F            1    LIG   0.0000
  14 C14          2.2035    -3.8251     1.0163 C.ar         1    LIG   0.0000
  15 F15          2.7880    -5.0190     1.0151 F            1    LIG   0.0000
  16 C16          1.9026    -3.2111     2.2268 C.ar         1    LIG   0.0000
  17 C17          1.2920    -1.9624     2.2056 C.ar         1    LIG   0.0000
  18 I18          0.8154    -0.9892     4.0621 I            1    LIG   0.0000
  19 H            3.0192     2.6224     3.8093 H            1    LIG   0.0000
  20 H            5.0380     2.0383     2.7911 H            1    LIG   0.0000
  21 H            6.2328     1.0013     0.9977 H            1    LIG   0.0000
  22 H            5.0362    -0.0364    -0.7936 H            1    LIG   0.0000
  23 H            2.6456    -0.0351    -0.7935 H            1    LIG   0.0000
  24 H            0.5000     1.8660     0.9998 H            1    LIG   0.0000
  25 H            1.0717    -1.5078    -1.0769 H            1    LIG   0.0000
  26 H            2.1208    -3.6582     3.0943 H            1    LIG   0.0000
@<TRIPOS>BOND
   1        1        2 1
   2        2        3 ar
   3        3        4 ar
   4        4        5 ar
   5        5        6 ar
   6        6        7 ar
   7        7        2 ar
   8        7        8 1
   9        8        9 2
  10        9       10 1
  11       10       11 ar
  12       11       12 ar
  13       12       13 1
  14       12       14 ar
  15       14       15 1
  16       14       16 ar
  17       16       17 ar
  18       17       10 ar
  19       17       18 1
  20        1       19 1
  21        3       20 1
  22        4       21 1
  23        5       22 1
  24        6       23 1
  25        8       24 1
  26       11       25 1
  27       16       26 1

