@<TRIPOS>MOLECULE
*****
 26 27 0 0 0
SMALL
USER_CHARGES

@<TRIPOS>ATOM
      1 O1          2.4992    2.1949   -1.0698 O.3     1  LIG1        0.0000
      2 C2          3.1469    1.6023   -0.0439 C.ar    1  LIG1        0.0000
      3 C3          4.5376    1.6005   -0.0442 C.ar    1  LIG1        0.0000
      4 C4          5.2328    0.9982    0.9999 C.ar    1  LIG1        0.0000
      5 C5          4.5365    0.3972    2.0437 C.ar    1  LIG1        0.0000
      6 C6          3.1457    0.3974    2.0433 C.ar    1  LIG1        0.0000
      7 C7          2.4502    1.0000    1.0000 C.ar    1  LIG1        0.0000
      8 C8          1.0000    1.0000    1.0000 C.2     1  LIG1        0.0000
      9 N9          0.3750   -0.0825    1.0003 N.2     1  LIG1        0.0000
     10 C10         0.9883   -1.3399    1.0006 C.ar    1  LIG1        0.0000
     11 C11         1.2895   -1.9551   -0.2094 C.ar    1  LIG1        0.0000
     12 C12         1.8997   -3.2047   -0.1896 C.ar    1  LIG1        0.0000
     13 F13         2.1941   -3.8069   -1.3376 F       1  LIG1        0.0000
     14 C14         2.2035   -3.8251    1.0163 C.ar    1  LIG1        0.0000
     15 F15         2.7880   -5.0190    1.0151 F       1  LIG1        0.0000
     16 C16         1.9026   -3.2111    2.2268 C.ar    1  LIG1        0.0000
     17 C17         1.2920   -1.9624    2.2056 C.ar    1  LIG1        0.0000
     18 I18         0.8154   -0.9892    4.0621 I       1  LIG1        0.0000
     19 H           3.0192    2.6218   -1.8096 H       1  LIG1        0.0000
     20 H           5.0380    2.0320   -0.7948 H       1  LIG1        0.0000
     21 H           6.2328    0.9974    1.0000 H       1  LIG1        0.0000
     22 H           5.0362   -0.0351    2.7944 H       1  LIG1        0.0000
     23 H           2.6456   -0.0356    2.7932 H       1  LIG1        0.0000
     24 H           0.5000    1.8660    0.9998 H       1  LIG1        0.0000
     25 H           1.0717   -1.5078   -1.0769 H       1  LIG1        0.0000
     26 H           2.1208   -3.6582    3.0943 H       1  LIG1        0.0000
@<TRIPOS>BOND
     1     1     2    1
     2     2     3   ar
     3     3     4   ar
     4     4     5   ar
     5     5     6   ar
     6     6     7   ar
     7     7     2   ar
     8     7     8    1
     9     8     9    2
    10     9    10    1
    11    10    11   ar
    12    11    12   ar
    13    12    13    1
    14    12    14   ar
    15    14    15    1
    16    14    16   ar
    17    16    17   ar
    18    17    10   ar
    19    17    18    1
    20     1    19    1
    21     3    20    1
    22     4    21    1
    23     5    22    1
    24     6    23    1
    25     8    24    1
    26    11    25    1
    27    16    26    1
