@<TRIPOS>MOLECULE

  26   27
SMALL
USER_CHARGES
@<TRIPOS>ATOM
   1 N1          -1.8307     0.4906    -2.9344 N.1          1    LIG   0.0000
   2 C2          -1.9166     1.2642    -2.1015 C.1          1    LIG   0.0000
   3 C3          -2.0312     2.2958    -0.9907 C.ar         1    LIG   0.0000
   4 C4          -3.1101     3.1729    -0.9649 C.ar         1    LIG   0.0000
   5 C5          -3.2224     4.1193     0.0484 C.ar         1    LIG   0.0000
   6 C6          -2.2431     4.1772     1.0343 C.ar         1    LIG   0.0000
   7 F7          -2.3428     5.0791     2.0071 F            1    LIG   0.0000
   8 C8          -1.1591     3.3052     1.0191 C.ar         1    LIG   0.0000
   9 C9          -1.0576     2.3628     0.0008 C.ar         1    LIG   0.0000
  10 N10          0.0363     1.4890    -0.0050 N.pl3        1    LIG   0.0000
  11 C11          1.4502     1.8775    -0.0874 C.3          1    LIG   0.0000
  12 C12          2.2413     0.7390     0.5277 C.3          1    LIG   0.0000
  13 C13          1.2001    -0.3060     0.8831 C.3          1    LIG   0.0000
  14 O14          1.6691    -1.6157     0.5905 O.3          1    LIG   0.0000
  15 C15         -0.0278     0.0276     0.0653 C.3          1    LIG   0.0000
  16 H            0.9804    -0.2402     1.8565 H            1    LIG   0.0000
  17 H           -3.8088     3.1230    -1.6785 H            1    LIG   0.0000
  18 H           -3.9978     4.7504     0.0678 H            1    LIG   0.0000
  19 H           -0.4603     3.3552     1.7327 H            1    LIG   0.0000
  20 H            1.6071     2.7233     0.4226 H            1    LIG   0.0000
  21 H            1.7180     2.0092    -1.0418 H            1    LIG   0.0000
  22 H            2.8995     0.3717    -0.1294 H            1    LIG   0.0000
  23 H            2.7248     1.0477     1.3467 H            1    LIG   0.0000
  24 H            2.4795    -1.8107     1.1431 H            1    LIG   0.0000
  25 H            0.0208    -0.3819    -0.8458 H            1    LIG   0.0000
  26 H           -0.8627    -0.2773     0.5236 H            1    LIG   0.0000
@<TRIPOS>BOND
   1        1        2 3
   2        2        3 1
   3        3        4 ar
   4        4        5 ar
   5        5        6 ar
   6        6        7 1
   7        6        8 ar
   8        8        9 ar
   9        9        3 ar
  10        9       10 1
  11       10       11 1
  12       11       12 1
  13       12       13 1
  14       13       14 1
  15       13       15 1
  16       15       10 1
  17       13       16 1
  18        4       17 1
  19        5       18 1
  20        8       19 1
  21       11       20 1
  22       11       21 1
  23       12       22 1
  24       12       23 1
  25       14       24 1
  26       15       25 1
  27       15       26 1

@<TRIPOS>MOLECULE

  26   27
SMALL
USER_CHARGES
@<TRIPOS>ATOM
   1 N1          -2.5789    -0.4550    -1.5688 N.1          1    LIG   0.0000
   2 C2          -2.4529     0.5864    -1.1226 C.1          1    LIG   0.0000
   3 C3          -2.2849     1.9752    -0.5274 C.ar         1    LIG   0.0000
   4 C4          -3.3585     2.8589    -0.5103 C.ar         1    LIG   0.0000
   5 C5          -3.2129     4.1312     0.0329 C.ar         1    LIG   0.0000
   6 C6          -1.9814     4.5079     0.5581 C.ar         1    LIG   0.0000
   7 F7          -1.8336     5.7227     1.0797 F            1    LIG   0.0000
   8 C8          -0.9000     3.6327     0.5466 C.ar         1    LIG   0.0000
   9 C9          -1.0576     2.3628     0.0008 C.ar         1    LIG   0.0000
  10 N10          0.0363     1.4890    -0.0050 N.pl3        1    LIG   0.0000
  11 C11          1.4502     1.8775    -0.0874 C.3          1    LIG   0.0000
  12 C12          2.2413     0.7390     0.5277 C.3          1    LIG   0.0000
  13 C13          1.2001    -0.3060     0.8831 C.3          1    LIG   0.0000
  14 O14          1.6691    -1.6157     0.5905 O.3          1    LIG   0.0000
  15 C15         -0.0278     0.0276     0.0653 C.3          1    LIG   0.0000
  16 H            0.9804    -0.2402     1.8565 H            1    LIG   0.0000
  17 H           -4.2398     2.5783    -0.8905 H            1    LIG   0.0000
  18 H           -3.9844     4.7673     0.0457 H            1    LIG   0.0000
  19 H           -0.0187     3.9134     0.9266 H            1    LIG   0.0000
  20 H            1.6071     2.7233     0.4226 H            1    LIG   0.0000
  21 H            1.7180     2.0092    -1.0418 H            1    LIG   0.0000
  22 H            2.8995     0.3717    -0.1294 H            1    LIG   0.0000
  23 H            2.7248     1.0477     1.3467 H            1    LIG   0.0000
  24 H            2.4795    -1.8107     1.1431 H            1    LIG   0.0000
  25 H            0.0208    -0.3819    -0.8458 H            1    LIG   0.0000
  26 H           -0.8627    -0.2773     0.5236 H            1    LIG   0.0000
@<TRIPOS>BOND
   1        1        2 3
   2        2        3 1
   3        3        4 ar
   4        4        5 ar
   5        5        6 ar
   6        6        7 1
   7        6        8 ar
   8        8        9 ar
   9        9        3 ar
  10        9       10 1
  11       10       11 1
  12       11       12 1
  13       12       13 1
  14       13       14 1
  15       13       15 1
  16       15       10 1
  17       13       16 1
  18        4       17 1
  19        5       18 1
  20        8       19 1
  21       11       20 1
  22       11       21 1
  23       12       22 1
  24       12       23 1
  25       14       24 1
  26       15       25 1
  27       15       26 1

@<TRIPOS>MOLECULE

  26   27
SMALL
USER_CHARGES
@<TRIPOS>ATOM
   1 N1           0.3609     3.2356    -3.1527 N.1          1    LIG   0.0000
   2 C2          -0.3457     3.2318    -2.2581 C.1          1    LIG   0.0000
   3 C3          -1.2880     3.2267    -1.0651 C.ar         1    LIG   0.0000
   4 C4          -2.3814     4.0855    -1.0389 C.ar         1    LIG   0.0000
   5 C5          -3.2485     4.0865     0.0488 C.ar         1    LIG   0.0000
   6 C6          -3.0084     3.2186     1.1087 C.ar         1    LIG   0.0000
   7 F7          -3.8327     3.2130     2.1528 F            1    LIG   0.0000
   8 C8          -1.9178     2.3549     1.0941 C.ar         1    LIG   0.0000
   9 C9          -1.0576     2.3628     0.0008 C.ar         1    LIG   0.0000
  10 N10          0.0363     1.4890    -0.0050 N.pl3        1    LIG   0.0000
  11 C11          1.4502     1.8775    -0.0874 C.3          1    LIG   0.0000
  12 C12          2.2413     0.7390     0.5277 C.3          1    LIG   0.0000
  13 C13          1.2001    -0.3060     0.8831 C.3          1    LIG   0.0000
  14 O14          1.6691    -1.6157     0.5905 O.3          1    LIG   0.0000
  15 C15         -0.0278     0.0276     0.0653 C.3          1    LIG   0.0000
  16 H            0.9804    -0.2402     1.8565 H            1    LIG   0.0000
  17 H           -2.5452     4.7057    -1.8061 H            1    LIG   0.0000
  18 H           -4.0351     4.7037     0.0684 H            1    LIG   0.0000
  19 H           -1.7540     1.7349     1.8614 H            1    LIG   0.0000
  20 H            1.6071     2.7233     0.4226 H            1    LIG   0.0000
  21 H            1.7180     2.0092    -1.0418 H            1    LIG   0.0000
  22 H            2.8995     0.3717    -0.1294 H            1    LIG   0.0000
  23 H            2.7248     1.0477     1.3467 H            1    LIG   0.0000
  24 H            2.4795    -1.8107     1.1431 H            1    LIG   0.0000
  25 H            0.0208    -0.3819    -0.8458 H            1    LIG   0.0000
  26 H           -0.8627    -0.2773     0.5236 H            1    LIG   0.0000
@<TRIPOS>BOND
   1        1        2 3
   2        2        3 1
   3        3        4 ar
   4        4        5 ar
   5        5        6 ar
   6        6        7 1
   7        6        8 ar
   8        8        9 ar
   9        9        3 ar
  10        9       10 1
  11       10       11 1
  12       11       12 1
  13       12       13 1
  14       13       14 1
  15       13       15 1
  16       15       10 1
  17       13       16 1
  18        4       17 1
  19        5       18 1
  20        8       19 1
  21       11       20 1
  22       11       21 1
  23       12       22 1
  24       12       23 1
  25       14       24 1
  26       15       25 1
  27       15       26 1

@<TRIPOS>MOLECULE

  26   27
SMALL
USER_CHARGES
@<TRIPOS>ATOM
   1 N1           0.6164     3.5153     2.9313 N.1          1    LIG   0.0000
   2 C2          -0.1624     3.4325     2.1029 C.1          1    LIG   0.0000
   3 C3          -1.2009     3.3220     0.9982 C.ar         1    LIG   0.0000
   4 C4          -2.2949     4.1806     0.9838 C.ar         1    LIG   0.0000
   5 C5          -3.2492     4.0862    -0.0239 C.ar         1    LIG   0.0000
   6 C6          -3.0956     3.1234    -1.0157 C.ar         1    LIG   0.0000
   7 F7          -4.0036     3.0264    -1.9832 F            1    LIG   0.0000
   8 C8          -2.0057     2.2588    -1.0120 C.ar         1    LIG   0.0000
   9 C9          -1.0576     2.3628     0.0008 C.ar         1    LIG   0.0000
  10 N10          0.0363     1.4890    -0.0050 N.pl3        1    LIG   0.0000
  11 C11          1.4502     1.8775    -0.0874 C.3          1    LIG   0.0000
  12 C12          2.2413     0.7390     0.5277 C.3          1    LIG   0.0000
  13 C13          1.2001    -0.3060     0.8831 C.3          1    LIG   0.0000
  14 O14          1.6691    -1.6157     0.5905 O.3          1    LIG   0.0000
  15 C15         -0.0278     0.0276     0.0653 C.3          1    LIG   0.0000
  16 H            0.9804    -0.2402     1.8565 H            1    LIG   0.0000
  17 H           -2.3960     4.8694     1.7017 H            1    LIG   0.0000
  18 H           -4.0361     4.7032    -0.0350 H            1    LIG   0.0000
  19 H           -1.9047     1.5699    -1.7297 H            1    LIG   0.0000
  20 H            1.6071     2.7233     0.4226 H            1    LIG   0.0000
  21 H            1.7180     2.0092    -1.0418 H            1    LIG   0.0000
  22 H            2.8995     0.3717    -0.1294 H            1    LIG   0.0000
  23 H            2.7248     1.0477     1.3467 H            1    LIG   0.0000
  24 H            2.4795    -1.8107     1.1431 H            1    LIG   0.0000
  25 H            0.0208    -0.3819    -0.8458 H            1    LIG   0.0000
  26 H           -0.8627    -0.2773     0.5236 H            1    LIG   0.0000
@<TRIPOS>BOND
   1        1        2 3
   2        2        3 1
   3        3        4 ar
   4        4        5 ar
   5        5        6 ar
   6        6        7 1
   7        6        8 ar
   8        8        9 ar
   9        9        3 ar
  10        9       10 1
  11       10       11 1
  12       11       12 1
  13       12       13 1
  14       13       14 1
  15       13       15 1
  16       15       10 1
  17       13       16 1
  18        4       17 1
  19        5       18 1
  20        8       19 1
  21       11       20 1
  22       11       21 1
  23       12       22 1
  24       12       23 1
  25       14       24 1
  26       15       25 1
  27       15       26 1

@<TRIPOS>MOLECULE

  26   27
SMALL
USER_CHARGES
@<TRIPOS>ATOM
   1 N1          -1.5752     0.7703     3.1495 N.1          1    LIG   0.0000
   2 C2          -1.7333     1.4649     2.2595 C.1          1    LIG   0.0000
   3 C3          -1.9442     2.3911     1.0725 C.ar         1    LIG   0.0000
   4 C4          -3.0235     3.2679     1.0579 C.ar         1    LIG   0.0000
   5 C5          -3.2230     4.1190    -0.0242 C.ar         1    LIG   0.0000
   6 C6          -2.3303     4.0819    -1.0902 C.ar         1    LIG   0.0000
   7 F7          -2.5137     4.8925    -2.1289 F            1    LIG   0.0000
   8 C8          -1.2470     3.2091    -1.0870 C.ar         1    LIG   0.0000
   9 C9          -1.0576     2.3628     0.0008 C.ar         1    LIG   0.0000
  10 N10          0.0363     1.4890    -0.0050 N.pl3        1    LIG   0.0000
  11 C11          1.4502     1.8775    -0.0874 C.3          1    LIG   0.0000
  12 C12          2.2413     0.7390     0.5277 C.3          1    LIG   0.0000
  13 C13          1.2001    -0.3060     0.8831 C.3          1    LIG   0.0000
  14 O14          1.6691    -1.6157     0.5905 O.3          1    LIG   0.0000
  15 C15         -0.0278     0.0276     0.0653 C.3          1    LIG   0.0000
  16 H            0.9804    -0.2402     1.8565 H            1    LIG   0.0000
  17 H           -3.6596     3.2867     1.8293 H            1    LIG   0.0000
  18 H           -3.9988     4.7498    -0.0356 H            1    LIG   0.0000
  19 H           -0.6111     3.1902    -1.8585 H            1    LIG   0.0000
  20 H            1.6071     2.7233     0.4226 H            1    LIG   0.0000
  21 H            1.7180     2.0092    -1.0418 H            1    LIG   0.0000
  22 H            2.8995     0.3717    -0.1294 H            1    LIG   0.0000
  23 H            2.7248     1.0477     1.3467 H            1    LIG   0.0000
  24 H            2.4795    -1.8107     1.1431 H            1    LIG   0.0000
  25 H            0.0208    -0.3819    -0.8458 H            1    LIG   0.0000
  26 H           -0.8627    -0.2773     0.5236 H            1    LIG   0.0000
@<TRIPOS>BOND
   1        1        2 3
   2        2        3 1
   3        3        4 ar
   4        4        5 ar
   5        5        6 ar
   6        6        7 1
   7        6        8 ar
   8        8        9 ar
   9        9        3 ar
  10        9       10 1
  11       10       11 1
  12       11       12 1
  13       12       13 1
  14       13       14 1
  15       13       15 1
  16       15       10 1
  17       13       16 1
  18        4       17 1
  19        5       18 1
  20        8       19 1
  21       11       20 1
  22       11       21 1
  23       12       22 1
  24       12       23 1
  25       14       24 1
  26       15       25 1
  27       15       26 1

@<TRIPOS>MOLECULE

  26   27
SMALL
USER_CHARGES
@<TRIPOS>ATOM
   1 N1          -0.4597     2.1645     3.5110 N.1          1    LIG   0.0000
   2 C2          -0.9337     2.4642     2.5185 C.1          1    LIG   0.0000
   3 C3          -1.5658     2.8639     1.1950 C.ar         1    LIG   0.0000
   4 C4          -2.6525     3.7316     1.1773 C.ar         1    LIG   0.0000
   5 C5          -3.2361     4.1026    -0.0297 C.ar         1    LIG   0.0000
   6 C6          -2.7197     3.5953    -1.2173 C.ar         1    LIG   0.0000
   7 F7          -3.2718     3.9450    -2.3760 F            1    LIG   0.0000
   8 C8          -1.6331     2.7265    -1.2124 C.ar         1    LIG   0.0000
   9 C9          -1.0576     2.3628     0.0008 C.ar         1    LIG   0.0000
  10 N10          0.0363     1.4890    -0.0050 N.pl3        1    LIG   0.0000
  11 C11          1.4502     1.8775    -0.0874 C.3          1    LIG   0.0000
  12 C12          2.2413     0.7390     0.5277 C.3          1    LIG   0.0000
  13 C13          1.2001    -0.3060     0.8831 C.3          1    LIG   0.0000
  14 O14          1.6691    -1.6157     0.5905 O.3          1    LIG   0.0000
  15 C15         -0.0278     0.0276     0.0653 C.3          1    LIG   0.0000
  16 H            0.9804    -0.2402     1.8565 H            1    LIG   0.0000
  17 H           -3.0162     4.0907     2.0368 H            1    LIG   0.0000
  18 H           -4.0175     4.7264    -0.0433 H            1    LIG   0.0000
  19 H           -1.2696     2.3673    -2.0719 H            1    LIG   0.0000
  20 H            1.6071     2.7233     0.4226 H            1    LIG   0.0000
  21 H            1.7180     2.0092    -1.0418 H            1    LIG   0.0000
  22 H            2.8995     0.3717    -0.1294 H            1    LIG   0.0000
  23 H            2.7248     1.0477     1.3467 H            1    LIG   0.0000
  24 H            2.4795    -1.8107     1.1431 H            1    LIG   0.0000
  25 H            0.0208    -0.3819    -0.8458 H            1    LIG   0.0000
  26 H           -0.8627    -0.2773     0.5236 H            1    LIG   0.0000
@<TRIPOS>BOND
   1        1        2 3
   2        2        3 1
   3        3        4 ar
   4        4        5 ar
   5        5        6 ar
   6        6        7 1
   7        6        8 ar
   8        8        9 ar
   9        9        3 ar
  10        9       10 1
  11       10       11 1
  12       11       12 1
  13       12       13 1
  14       13       14 1
  15       13       15 1
  16       15       10 1
  17       13       16 1
  18        4       17 1
  19        5       18 1
  20        8       19 1
  21       11       20 1
  22       11       21 1
  23       12       22 1
  24       12       23 1
  25       14       24 1
  26       15       25 1
  27       15       26 1

@<TRIPOS>MOLECULE

  26   27
SMALL
USER_CHARGES
@<TRIPOS>ATOM
   1 N1          -1.3475     0.4499     3.2674 N.1          1    LIG   0.0000
   2 C2          -0.5353    -0.3342     3.1088 C.1          1    LIG   0.0000
   3 C3           0.5478    -1.3798     2.8972 C.ar         1    LIG   0.0000
   4 C4           0.7101    -2.4090     3.8183 C.ar         1    LIG   0.0000
   5 C5           1.6985    -3.3699     3.6315 C.ar         1    LIG   0.0000
   6 C6           2.5214    -3.2883     2.5133 C.ar         1    LIG   0.0000
   7 F7           3.4690    -4.2032     2.3270 F            1    LIG   0.0000
   8 C8           2.3688    -2.2634     1.5850 C.ar         1    LIG   0.0000
   9 C9           1.3767    -1.3083     1.7823 C.ar         1    LIG   0.0000
  10 N10          1.2304    -0.2815     0.8418 N.pl3        1    LIG   0.0000
  11 C11          2.2532     0.6992     0.4642 C.3          1    LIG   0.0000
  12 C12          1.4729     1.8866    -0.0706 C.3          1    LIG   0.0000
  13 C13          0.0063     1.5055    -0.0015 C.3          1    LIG   0.0000
  14 O14         -0.5883     1.9788     1.1997 O.3          1    LIG   0.0000
  15 C15          0.0333    -0.0049     0.0514 C.3          1    LIG   0.0000
  16 H           -0.4914     1.8313    -0.8054 H            1    LIG   0.0000
  17 H            0.1132    -2.4586     4.6190 H            1    LIG   0.0000
  18 H            1.8158    -4.1104     4.2933 H            1    LIG   0.0000
  19 H            2.9659    -2.2137     0.7844 H            1    LIG   0.0000
  20 H            2.8552     0.3263    -0.2419 H            1    LIG   0.0000
  21 H            2.7975     0.9648     1.2600 H            1    LIG   0.0000
  22 H            1.6464     2.6953     0.4914 H            1    LIG   0.0000
  23 H            1.7365     2.0754    -1.0166 H            1    LIG   0.0000
  24 H           -0.6166     2.9783     1.1862 H            1    LIG   0.0000
  25 H           -0.7851    -0.3640     0.5000 H            1    LIG   0.0000
  26 H            0.1094    -0.3959    -0.8658 H            1    LIG   0.0000
@<TRIPOS>BOND
   1        1        2 3
   2        2        3 1
   3        3        4 ar
   4        4        5 ar
   5        5        6 ar
   6        6        7 1
   7        6        8 ar
   8        8        9 ar
   9        9        3 ar
  10        9       10 1
  11       10       11 1
  12       11       12 1
  13       12       13 1
  14       13       14 1
  15       13       15 1
  16       15       10 1
  17       13       16 1
  18        4       17 1
  19        5       18 1
  20        8       19 1
  21       11       20 1
  22       11       21 1
  23       12       22 1
  24       12       23 1
  25       14       24 1
  26       15       25 1
  27       15       26 1

@<TRIPOS>MOLECULE

  26   27
SMALL
USER_CHARGES
@<TRIPOS>ATOM
   1 N1           0.1445     1.2636     3.9236 N.1          1    LIG   0.0000
   2 C2           0.5341     0.2491     3.5792 C.1          1    LIG   0.0000
   3 C3           1.0537    -1.1037     3.1199 C.ar         1    LIG   0.0000
   4 C4           1.2057    -2.1381     4.0369 C.ar         1    LIG   0.0000
   5 C5           1.6800    -3.3790     3.6245 C.ar         1    LIG   0.0000
   6 C6           1.9999    -3.5720     2.2847 C.ar         1    LIG   0.0000
   7 F7           2.4540    -4.7557     1.8818 F            1    LIG   0.0000
   8 C8           1.8521    -2.5449     1.3581 C.ar         1    LIG   0.0000
   9 C9           1.3767    -1.3083     1.7823 C.ar         1    LIG   0.0000
  10 N10          1.2304    -0.2815     0.8418 N.pl3        1    LIG   0.0000
  11 C11          2.2532     0.6992     0.4642 C.3          1    LIG   0.0000
  12 C12          1.4729     1.8866    -0.0706 C.3          1    LIG   0.0000
  13 C13          0.0063     1.5055    -0.0015 C.3          1    LIG   0.0000
  14 O14         -0.5883     1.9788     1.1997 O.3          1    LIG   0.0000
  15 C15          0.0333    -0.0049     0.0514 C.3          1    LIG   0.0000
  16 H           -0.4914     1.8313    -0.8054 H            1    LIG   0.0000
  17 H            0.9729    -1.9890     4.9980 H            1    LIG   0.0000
  18 H            1.7897    -4.1233     4.2832 H            1    LIG   0.0000
  19 H            2.0852    -2.6940     0.3971 H            1    LIG   0.0000
  20 H            2.8552     0.3263    -0.2419 H            1    LIG   0.0000
  21 H            2.7975     0.9648     1.2600 H            1    LIG   0.0000
  22 H            1.6464     2.6953     0.4914 H            1    LIG   0.0000
  23 H            1.7365     2.0754    -1.0166 H            1    LIG   0.0000
  24 H           -0.6166     2.9783     1.1862 H            1    LIG   0.0000
  25 H           -0.7851    -0.3640     0.5000 H            1    LIG   0.0000
  26 H            0.1094    -0.3959    -0.8658 H            1    LIG   0.0000
@<TRIPOS>BOND
   1        1        2 3
   2        2        3 1
   3        3        4 ar
   4        4        5 ar
   5        5        6 ar
   6        6        7 1
   7        6        8 ar
   8        8        9 ar
   9        9        3 ar
  10        9       10 1
  11       10       11 1
  12       11       12 1
  13       12       13 1
  14       13       14 1
  15       13       15 1
  16       15       10 1
  17       13       16 1
  18        4       17 1
  19        5       18 1
  20        8       19 1
  21       11       20 1
  22       11       21 1
  23       12       22 1
  24       12       23 1
  25       14       24 1
  26       15       25 1
  27       15       26 1

@<TRIPOS>MOLECULE

  26   27
SMALL
USER_CHARGES
@<TRIPOS>ATOM
   1 N1           1.9505     1.5015     3.9023 N.1          1    LIG   0.0000
   2 C2           1.8286     0.4197     3.5640 C.1          1    LIG   0.0000
   3 C3           1.6661    -1.0229     3.1128 C.ar         1    LIG   0.0000
   4 C4           1.8062    -2.0584     4.0304 C.ar         1    LIG   0.0000
   5 C5           1.6584    -3.3811     3.6256 C.ar         1    LIG   0.0000
   6 C6           1.3693    -3.6544     2.2929 C.ar         1    LIG   0.0000
   7 F7           1.2262    -4.9165     1.8973 F            1    LIG   0.0000
   8 C8           1.2269    -2.6271     1.3657 C.ar         1    LIG   0.0000
   9 C9           1.3767    -1.3083     1.7823 C.ar         1    LIG   0.0000
  10 N10          1.2304    -0.2815     0.8418 N.pl3        1    LIG   0.0000
  11 C11          2.2532     0.6992     0.4642 C.3          1    LIG   0.0000
  12 C12          1.4729     1.8866    -0.0706 C.3          1    LIG   0.0000
  13 C13          0.0063     1.5055    -0.0015 C.3          1    LIG   0.0000
  14 O14         -0.5883     1.9788     1.1997 O.3          1    LIG   0.0000
  15 C15          0.0333    -0.0049     0.0514 C.3          1    LIG   0.0000
  16 H           -0.4914     1.8313    -0.8054 H            1    LIG   0.0000
  17 H            2.0142    -1.8512     4.9863 H            1    LIG   0.0000
  18 H            1.7590    -4.1263     4.2848 H            1    LIG   0.0000
  19 H            1.0192    -2.8344     0.4097 H            1    LIG   0.0000
  20 H            2.8552     0.3263    -0.2419 H            1    LIG   0.0000
  21 H            2.7975     0.9648     1.2600 H            1    LIG   0.0000
  22 H            1.6464     2.6953     0.4914 H            1    LIG   0.0000
  23 H            1.7365     2.0754    -1.0166 H            1    LIG   0.0000
  24 H           -0.6166     2.9783     1.1862 H            1    LIG   0.0000
  25 H           -0.7851    -0.3640     0.5000 H            1    LIG   0.0000
  26 H            0.1094    -0.3959    -0.8658 H            1    LIG   0.0000
@<TRIPOS>BOND
   1        1        2 3
   2        2        3 1
   3        3        4 ar
   4        4        5 ar
   5        5        6 ar
   6        6        7 1
   7        6        8 ar
   8        8        9 ar
   9        9        3 ar
  10        9       10 1
  11       10       11 1
  12       11       12 1
  13       12       13 1
  14       13       14 1
  15       13       15 1
  16       15       10 1
  17       13       16 1
  18        4       17 1
  19        5       18 1
  20        8       19 1
  21       11       20 1
  22       11       21 1
  23       12       22 1
  24       12       23 1
  25       14       24 1
  26       15       25 1
  27       15       26 1

@<TRIPOS>MOLECULE

  26   27
SMALL
USER_CHARGES
@<TRIPOS>ATOM
   1 N1           4.7586    -1.0492     0.6805 N.1          1    LIG   0.0000
   2 C2           3.8417    -1.4085     1.2546 C.1          1    LIG   0.0000
   3 C3           2.6189    -1.8877     2.0203 C.ar         1    LIG   0.0000
   4 C4           2.7416    -2.9056     2.9599 C.ar         1    LIG   0.0000
   5 C5           1.6276    -3.3493     3.6651 C.ar         1    LIG   0.0000
   6 C6           0.3908    -2.7627     3.4188 C.ar         1    LIG   0.0000
   7 F7          -0.6796    -3.1809     4.0888 F            1    LIG   0.0000
   8 C8           0.2555    -1.7438     2.4812 C.ar         1    LIG   0.0000
   9 C9           1.3767    -1.3083     1.7823 C.ar         1    LIG   0.0000
  10 N10          1.2304    -0.2815     0.8418 N.pl3        1    LIG   0.0000
  11 C11          2.2532     0.6992     0.4642 C.3          1    LIG   0.0000
  12 C12          1.4729     1.8866    -0.0706 C.3          1    LIG   0.0000
  13 C13          0.0063     1.5055    -0.0015 C.3          1    LIG   0.0000
  14 O14         -0.5883     1.9788     1.1997 O.3          1    LIG   0.0000
  15 C15          0.0333    -0.0049     0.0514 C.3          1    LIG   0.0000
  16 H           -0.4914     1.8313    -0.8054 H            1    LIG   0.0000
  17 H            3.6354    -3.3208     3.1296 H            1    LIG   0.0000
  18 H            1.7150    -4.0811     4.3409 H            1    LIG   0.0000
  19 H           -0.6384    -1.3288     2.3115 H            1    LIG   0.0000
  20 H            2.8552     0.3263    -0.2419 H            1    LIG   0.0000
  21 H            2.7975     0.9648     1.2600 H            1    LIG   0.0000
  22 H            1.6464     2.6953     0.4914 H            1    LIG   0.0000
  23 H            1.7365     2.0754    -1.0166 H            1    LIG   0.0000
  24 H           -0.6166     2.9783     1.1862 H            1    LIG   0.0000
  25 H           -0.7851    -0.3640     0.5000 H            1    LIG   0.0000
  26 H            0.1094    -0.3959    -0.8658 H            1    LIG   0.0000
@<TRIPOS>BOND
   1        1        2 3
   2        2        3 1
   3        3        4 ar
   4        4        5 ar
   5        5        6 ar
   6        6        7 1
   7        6        8 ar
   8        8        9 ar
   9        9        3 ar
  10        9       10 1
  11       10       11 1
  12       11       12 1
  13       12       13 1
  14       13       14 1
  15       13       15 1
  16       15       10 1
  17       13       16 1
  18        4       17 1
  19        5       18 1
  20        8       19 1
  21       11       20 1
  22       11       21 1
  23       12       22 1
  24       12       23 1
  25       14       24 1
  26       15       25 1
  27       15       26 1

@<TRIPOS>MOLECULE

  26   27
SMALL
USER_CHARGES
@<TRIPOS>ATOM
   1 N1           3.9805    -2.2207    -0.4774 N.1          1    LIG   0.0000
   2 C2           3.2840    -2.2483     0.4246 C.1          1    LIG   0.0000
   3 C3           2.3551    -2.2851     1.6276 C.ar         1    LIG   0.0000
   4 C4           2.4836    -3.2953     2.5746 C.ar         1    LIG   0.0000
   5 C5           1.6379    -3.3356     3.6784 C.ar         1    LIG   0.0000
   6 C6           0.6634    -2.3538     3.8227 C.ar         1    LIG   0.0000
   7 F7          -0.1494    -2.3848     4.8754 F            1    LIG   0.0000
   8 C8           0.5251    -1.3383     2.8819 C.ar         1    LIG   0.0000
   9 C9           1.3767    -1.3083     1.7823 C.ar         1    LIG   0.0000
  10 N10          1.2304    -0.2815     0.8418 N.pl3        1    LIG   0.0000
  11 C11          2.2532     0.6992     0.4642 C.3          1    LIG   0.0000
  12 C12          1.4729     1.8866    -0.0706 C.3          1    LIG   0.0000
  13 C13          0.0063     1.5055    -0.0015 C.3          1    LIG   0.0000
  14 O14         -0.5883     1.9788     1.1997 O.3          1    LIG   0.0000
  15 C15          0.0333    -0.0049     0.0514 C.3          1    LIG   0.0000
  16 H           -0.4914     1.8313    -0.8054 H            1    LIG   0.0000
  17 H            3.1875    -3.9965     2.4616 H            1    LIG   0.0000
  18 H            1.7296    -4.0616     4.3599 H            1    LIG   0.0000
  19 H           -0.1790    -0.6373     2.9949 H            1    LIG   0.0000
  20 H            2.8552     0.3263    -0.2419 H            1    LIG   0.0000
  21 H            2.7975     0.9648     1.2600 H            1    LIG   0.0000
  22 H            1.6464     2.6953     0.4914 H            1    LIG   0.0000
  23 H            1.7365     2.0754    -1.0166 H            1    LIG   0.0000
  24 H           -0.6166     2.9783     1.1862 H            1    LIG   0.0000
  25 H           -0.7851    -0.3640     0.5000 H            1    LIG   0.0000
  26 H            0.1094    -0.3959    -0.8658 H            1    LIG   0.0000
@<TRIPOS>BOND
   1        1        2 3
   2        2        3 1
   3        3        4 ar
   4        4        5 ar
   5        5        6 ar
   6        6        7 1
   7        6        8 ar
   8        8        9 ar
   9        9        3 ar
  10        9       10 1
  11       10       11 1
  12       11       12 1
  13       12       13 1
  14       13       14 1
  15       13       15 1
  16       15       10 1
  17       13       16 1
  18        4       17 1
  19        5       18 1
  20        8       19 1
  21       11       20 1
  22       11       21 1
  23       12       22 1
  24       12       23 1
  25       14       24 1
  26       15       25 1
  27       15       26 1

@<TRIPOS>MOLECULE

  26   27
SMALL
USER_CHARGES
@<TRIPOS>ATOM
   1 N1           0.6824    -3.2724    -1.1123 N.1          1    LIG   0.0000
   2 C2           0.9200    -3.0022    -0.0305 C.1          1    LIG   0.0000
   3 C3           1.2368    -2.6420     1.4120 C.ar         1    LIG   0.0000
   4 C4           1.3875    -3.6459     2.3625 C.ar         1    LIG   0.0000
   5 C5           1.6779    -3.3244     3.6843 C.ar         1    LIG   0.0000
   6 C6           1.8155    -1.9877     4.0431 C.ar         1    LIG   0.0000
   7 F7           2.0934    -1.6716     5.3050 F            1    LIG   0.0000
   8 C8           1.6670    -0.9746     3.1013 C.ar         1    LIG   0.0000
   9 C9           1.3767    -1.3083     1.7823 C.ar         1    LIG   0.0000
  10 N10          1.2304    -0.2815     0.8418 N.pl3        1    LIG   0.0000
  11 C11          2.2532     0.6992     0.4642 C.3          1    LIG   0.0000
  12 C12          1.4729     1.8866    -0.0706 C.3          1    LIG   0.0000
  13 C13          0.0063     1.5055    -0.0015 C.3          1    LIG   0.0000
  14 O14         -0.5883     1.9788     1.1997 O.3          1    LIG   0.0000
  15 C15          0.0333    -0.0049     0.0514 C.3          1    LIG   0.0000
  16 H           -0.4914     1.8313    -0.8054 H            1    LIG   0.0000
  17 H            1.2865    -4.6039     2.0943 H            1    LIG   0.0000
  18 H            1.7865    -4.0457     4.3684 H            1    LIG   0.0000
  19 H            1.7677    -0.0166     3.3696 H            1    LIG   0.0000
  20 H            2.8552     0.3263    -0.2419 H            1    LIG   0.0000
  21 H            2.7975     0.9648     1.2600 H            1    LIG   0.0000
  22 H            1.6464     2.6953     0.4914 H            1    LIG   0.0000
  23 H            1.7365     2.0754    -1.0166 H            1    LIG   0.0000
  24 H           -0.6166     2.9783     1.1862 H            1    LIG   0.0000
  25 H           -0.7851    -0.3640     0.5000 H            1    LIG   0.0000
  26 H            0.1094    -0.3959    -0.8658 H            1    LIG   0.0000
@<TRIPOS>BOND
   1        1        2 3
   2        2        3 1
   3        3        4 ar
   4        4        5 ar
   5        5        6 ar
   6        6        7 1
   7        6        8 ar
   8        8        9 ar
   9        9        3 ar
  10        9       10 1
  11       10       11 1
  12       11       12 1
  13       12       13 1
  14       13       14 1
  15       13       15 1
  16       15       10 1
  17       13       16 1
  18        4       17 1
  19        5       18 1
  20        8       19 1
  21       11       20 1
  22       11       21 1
  23       12       22 1
  24       12       23 1
  25       14       24 1
  26       15       25 1
  27       15       26 1

@<TRIPOS>MOLECULE

  26   27
SMALL
USER_CHARGES
@<TRIPOS>ATOM
   1 N1           2.4885    -3.0345    -1.1336 N.1          1    LIG   0.0000
   2 C2           2.2145    -2.8316    -0.0458 C.1          1    LIG   0.0000
   3 C3           1.8493    -2.5611     1.4049 C.ar         1    LIG   0.0000
   4 C4           1.9879    -3.5663     2.3560 C.ar         1    LIG   0.0000
   5 C5           1.6563    -3.3265     3.6855 C.ar         1    LIG   0.0000
   6 C6           1.1849    -2.0702     4.0512 C.ar         1    LIG   0.0000
   7 F7           0.8656    -1.8324     5.3205 F            1    LIG   0.0000
   8 C8           1.0418    -1.0568     3.1089 C.ar         1    LIG   0.0000
   9 C9           1.3767    -1.3083     1.7823 C.ar         1    LIG   0.0000
  10 N10          1.2304    -0.2815     0.8418 N.pl3        1    LIG   0.0000
  11 C11          2.2532     0.6992     0.4642 C.3          1    LIG   0.0000
  12 C12          1.4729     1.8866    -0.0706 C.3          1    LIG   0.0000
  13 C13          0.0063     1.5055    -0.0015 C.3          1    LIG   0.0000
  14 O14         -0.5883     1.9788     1.1997 O.3          1    LIG   0.0000
  15 C15          0.0333    -0.0049     0.0514 C.3          1    LIG   0.0000
  16 H           -0.4914     1.8313    -0.8054 H            1    LIG   0.0000
  17 H            2.3278    -4.4662     2.0826 H            1    LIG   0.0000
  18 H            1.7558    -4.0487     4.3700 H            1    LIG   0.0000
  19 H            0.7017    -0.1570     3.3823 H            1    LIG   0.0000
  20 H            2.8552     0.3263    -0.2419 H            1    LIG   0.0000
  21 H            2.7975     0.9648     1.2600 H            1    LIG   0.0000
  22 H            1.6464     2.6953     0.4914 H            1    LIG   0.0000
  23 H            1.7365     2.0754    -1.0166 H            1    LIG   0.0000
  24 H           -0.6166     2.9783     1.1862 H            1    LIG   0.0000
  25 H           -0.7851    -0.3640     0.5000 H            1    LIG   0.0000
  26 H            0.1094    -0.3959    -0.8658 H            1    LIG   0.0000
@<TRIPOS>BOND
   1        1        2 3
   2        2        3 1
   3        3        4 ar
   4        4        5 ar
   5        5        6 ar
   6        6        7 1
   7        6        8 ar
   8        8        9 ar
   9        9        3 ar
  10        9       10 1
  11       10       11 1
  12       11       12 1
  13       12       13 1
  14       13       14 1
  15       13       15 1
  16       15       10 1
  17       13       16 1
  18        4       17 1
  19        5       18 1
  20        8       19 1
  21       11       20 1
  22       11       21 1
  23       12       22 1
  24       12       23 1
  25       14       24 1
  26       15       25 1
  27       15       26 1

@<TRIPOS>MOLECULE

  26   27
SMALL
USER_CHARGES
@<TRIPOS>ATOM
   1 N1          -0.9537    -2.8707    -0.4191 N.1          1    LIG   0.0000
   2 C2          -0.2528    -2.7144     0.4663 C.1          1    LIG   0.0000
   3 C3           0.6818    -2.5058     1.6470 C.ar         1    LIG   0.0000
   4 C4           0.8431    -3.5128     2.5925 C.ar         1    LIG   0.0000
   5 C5           1.6969    -3.3300     3.6754 C.ar         1    LIG   0.0000
   6 C6           2.3864    -2.1286     3.8004 C.ar         1    LIG   0.0000
   7 F7           3.2050    -1.9455     4.8329 F            1    LIG   0.0000
   8 C8           2.2332    -1.1138     2.8611 C.ar         1    LIG   0.0000
   9 C9           1.3767    -1.3083     1.7823 C.ar         1    LIG   0.0000
  10 N10          1.2304    -0.2815     0.8418 N.pl3        1    LIG   0.0000
  11 C11          2.2532     0.6992     0.4642 C.3          1    LIG   0.0000
  12 C12          1.4729     1.8866    -0.0706 C.3          1    LIG   0.0000
  13 C13          0.0063     1.5055    -0.0015 C.3          1    LIG   0.0000
  14 O14         -0.5883     1.9788     1.1997 O.3          1    LIG   0.0000
  15 C15          0.0333    -0.0049     0.0514 C.3          1    LIG   0.0000
  16 H           -0.4914     1.8313    -0.8054 H            1    LIG   0.0000
  17 H            0.3427    -4.3729     2.4934 H            1    LIG   0.0000
  18 H            1.8135    -4.0536     4.3557 H            1    LIG   0.0000
  19 H            2.7335    -0.2537     2.9605 H            1    LIG   0.0000
  20 H            2.8552     0.3263    -0.2419 H            1    LIG   0.0000
  21 H            2.7975     0.9648     1.2600 H            1    LIG   0.0000
  22 H            1.6464     2.6953     0.4914 H            1    LIG   0.0000
  23 H            1.7365     2.0754    -1.0166 H            1    LIG   0.0000
  24 H           -0.6166     2.9783     1.1862 H            1    LIG   0.0000
  25 H           -0.7851    -0.3640     0.5000 H            1    LIG   0.0000
  26 H            0.1094    -0.3959    -0.8658 H            1    LIG   0.0000
@<TRIPOS>BOND
   1        1        2 3
   2        2        3 1
   3        3        4 ar
   4        4        5 ar
   5        5        6 ar
   6        6        7 1
   7        6        8 ar
   8        8        9 ar
   9        9        3 ar
  10        9       10 1
  11       10       11 1
  12       11       12 1
  13       12       13 1
  14       13       14 1
  15       13       15 1
  16       15       10 1
  17       13       16 1
  18        4       17 1
  19        5       18 1
  20        8       19 1
  21       11       20 1
  22       11       21 1
  23       12       22 1
  24       12       23 1
  25       14       24 1
  26       15       25 1
  27       15       26 1

@<TRIPOS>MOLECULE

  26   27
SMALL
USER_CHARGES
@<TRIPOS>ATOM
   1 N1           3.5105     3.7978    -0.7893 N.1          1    LIG   0.0000
   2 C2           3.9138     2.8468    -0.3071 C.1          1    LIG   0.0000
   3 C3           4.4517     1.5786     0.3360 C.ar         1    LIG   0.0000
   4 C4           5.8207     1.4196     0.5214 C.ar         1    LIG   0.0000
   5 C5           6.3206     0.2624     1.1095 C.ar         1    LIG   0.0000
   6 C6           5.4349    -0.7326     1.5093 C.ar         1    LIG   0.0000
   7 F7           5.9046    -1.8425     2.0727 F            1    LIG   0.0000
   8 C8           4.0633    -0.5852     1.3290 C.ar         1    LIG   0.0000
   9 C9           3.5751     0.5766     0.7398 C.ar         1    LIG   0.0000
  10 N10          2.1931     0.7160     0.5639 N.pl3        1    LIG   0.0000
  11 C11          1.5171     1.8689    -0.0477 C.3          1    LIG   0.0000
  12 C12          0.0409     1.5431     0.0642 C.3          1    LIG   0.0000
  13 C13          0.0300     0.0306     0.0058 C.3          1    LIG   0.0000
  14 O14         -1.1826    -0.4933     0.5250 O.3          1    LIG   0.0000
  15 C15          1.1754    -0.2651     0.9467 C.3          1    LIG   0.0000
  16 H            0.2133    -0.3057    -0.9180 H            1    LIG   0.0000
  17 H            6.4491     2.1410     0.2304 H            1    LIG   0.0000
  18 H            7.3049     0.1473     1.2433 H            1    LIG   0.0000
  19 H            3.4350    -1.3067     1.6198 H            1    LIG   0.0000
  20 H            1.7857     1.9693    -1.0057 H            1    LIG   0.0000
  21 H            1.7326     2.7098     0.4488 H            1    LIG   0.0000
  22 H           -0.3369     1.8736     0.9291 H            1    LIG   0.0000
  23 H           -0.4743     1.9373    -0.6969 H            1    LIG   0.0000
  24 H           -1.9308    -0.2907    -0.1068 H            1    LIG   0.0000
  25 H            0.8975    -0.1390     1.8990 H            1    LIG   0.0000
  26 H            1.5119    -1.1980     0.8183 H            1    LIG   0.0000
@<TRIPOS>BOND
   1        1        2 3
   2        2        3 1
   3        3        4 ar
   4        4        5 ar
   5        5        6 ar
   6        6        7 1
   7        6        8 ar
   8        8        9 ar
   9        9        3 ar
  10        9       10 1
  11       10       11 1
  12       11       12 1
  13       12       13 1
  14       13       14 1
  15       13       15 1
  16       15       10 1
  17       13       16 1
  18        4       17 1
  19        5       18 1
  20        8       19 1
  21       11       20 1
  22       11       21 1
  23       12       22 1
  24       12       23 1
  25       14       24 1
  26       15       25 1
  27       15       26 1

