@<TRIPOS>MOLECULE
*****
 26 27 0 0 0
SMALL
USER_CHARGES

@<TRIPOS>ATOM
      1 N1          3.5105    3.7978   -0.7893 N.1     1  LIG1        0.0000
      2 C2          3.9138    2.8468   -0.3071 C.1     1  LIG1        0.0000
      3 C3          4.4517    1.5786    0.3360 C.ar    1  LIG1        0.0000
      4 C4          5.8207    1.4196    0.5214 C.ar    1  LIG1        0.0000
      5 C5          6.3206    0.2624    1.1095 C.ar    1  LIG1        0.0000
      6 C6          5.4349   -0.7326    1.5093 C.ar    1  LIG1        0.0000
      7 F7          5.9046   -1.8425    2.0727 F       1  LIG1        0.0000
      8 C8          4.0633   -0.5852    1.3290 C.ar    1  LIG1        0.0000
      9 C9          3.5751    0.5766    0.7398 C.ar    1  LIG1        0.0000
     10 N10         2.1931    0.7160    0.5639 N.pl3   1  LIG1        0.0000
     11 C11         1.5171    1.8689   -0.0477 C.3     1  LIG1        0.0000
     12 C12         0.0409    1.5431    0.0642 C.3     1  LIG1        0.0000
     13 C13         0.0300    0.0306    0.0058 C.3     1  LIG1        0.0000
     14 O14        -1.1826   -0.4933    0.5250 O.3     1  LIG1        0.0000
     15 C15         1.1754   -0.2651    0.9467 C.3     1  LIG1        0.0000
     16 H           0.2133   -0.3057   -0.9180 H       1  LIG1        0.0000
     17 H           6.4491    2.1410    0.2304 H       1  LIG1        0.0000
     18 H           7.3049    0.1473    1.2433 H       1  LIG1        0.0000
     19 H           3.4350   -1.3067    1.6198 H       1  LIG1        0.0000
     20 H           1.7857    1.9693   -1.0057 H       1  LIG1        0.0000
     21 H           1.7326    2.7098    0.4488 H       1  LIG1        0.0000
     22 H          -0.3369    1.8736    0.9291 H       1  LIG1        0.0000
     23 H          -0.4743    1.9373   -0.6969 H       1  LIG1        0.0000
     24 H          -1.9308   -0.2907   -0.1068 H       1  LIG1        0.0000
     25 H           0.8975   -0.1390    1.8990 H       1  LIG1        0.0000
     26 H           1.5119   -1.1980    0.8183 H       1  LIG1        0.0000
@<TRIPOS>BOND
     1     1     2    3
     2     2     3    1
     3     3     4   ar
     4     4     5   ar
     5     5     6   ar
     6     6     7    1
     7     6     8   ar
     8     8     9   ar
     9     9     3   ar
    10     9    10    1
    11    10    11    1
    12    11    12    1
    13    12    13    1
    14    13    14    1
    15    13    15    1
    16    15    10    1
    17    13    16    1
    18     4    17    1
    19     5    18    1
    20     8    19    1
    21    11    20    1
    22    11    21    1
    23    12    22    1
    24    12    23    1
    25    14    24    1
    26    15    25    1
    27    15    26    1
