@<TRIPOS>MOLECULE
*****
 26 27 0 0 0
SMALL
USER_CHARGES

@<TRIPOS>ATOM
      1 N1          2.4885   -3.0345   -1.1336 N.1     1  LIG1        0.0000
      2 C2          2.2145   -2.8316   -0.0458 C.1     1  LIG1        0.0000
      3 C3          1.8493   -2.5611    1.4049 C.ar    1  LIG1        0.0000
      4 C4          1.9879   -3.5663    2.3560 C.ar    1  LIG1        0.0000
      5 C5          1.6563   -3.3265    3.6855 C.ar    1  LIG1        0.0000
      6 C6          1.1849   -2.0702    4.0512 C.ar    1  LIG1        0.0000
      7 F7          0.8656   -1.8324    5.3205 F       1  LIG1        0.0000
      8 C8          1.0418   -1.0568    3.1089 C.ar    1  LIG1        0.0000
      9 C9          1.3767   -1.3083    1.7823 C.ar    1  LIG1        0.0000
     10 N10         1.2304   -0.2815    0.8418 N.pl3   1  LIG1        0.0000
     11 C11         2.2532    0.6992    0.4642 C.3     1  LIG1        0.0000
     12 C12         1.4729    1.8866   -0.0706 C.3     1  LIG1        0.0000
     13 C13         0.0063    1.5055   -0.0015 C.3     1  LIG1        0.0000
     14 O14        -0.5883    1.9788    1.1997 O.3     1  LIG1        0.0000
     15 C15         0.0333   -0.0049    0.0514 C.3     1  LIG1        0.0000
     16 H          -0.4914    1.8313   -0.8054 H       1  LIG1        0.0000
     17 H           2.3278   -4.4662    2.0826 H       1  LIG1        0.0000
     18 H           1.7558   -4.0487    4.3700 H       1  LIG1        0.0000
     19 H           0.7017   -0.1570    3.3823 H       1  LIG1        0.0000
     20 H           2.8552    0.3263   -0.2419 H       1  LIG1        0.0000
     21 H           2.7975    0.9648    1.2600 H       1  LIG1        0.0000
     22 H           1.6464    2.6953    0.4914 H       1  LIG1        0.0000
     23 H           1.7365    2.0754   -1.0166 H       1  LIG1        0.0000
     24 H          -0.6166    2.9783    1.1862 H       1  LIG1        0.0000
     25 H          -0.7851   -0.3640    0.5000 H       1  LIG1        0.0000
     26 H           0.1094   -0.3959   -0.8658 H       1  LIG1        0.0000
@<TRIPOS>BOND
     1     1     2    3
     2     2     3    1
     3     3     4   ar
     4     4     5   ar
     5     5     6   ar
     6     6     7    1
     7     6     8   ar
     8     8     9   ar
     9     9     3   ar
    10     9    10    1
    11    10    11    1
    12    11    12    1
    13    12    13    1
    14    13    14    1
    15    13    15    1
    16    15    10    1
    17    13    16    1
    18     4    17    1
    19     5    18    1
    20     8    19    1
    21    11    20    1
    22    11    21    1
    23    12    22    1
    24    12    23    1
    25    14    24    1
    26    15    25    1
    27    15    26    1
