@<TRIPOS>MOLECULE
*****
 26 27 0 0 0
SMALL
USER_CHARGES

@<TRIPOS>ATOM
      1 N1         -0.9537   -2.8707   -0.4191 N.1     1  LIG1        0.0000
      2 C2         -0.2528   -2.7144    0.4663 C.1     1  LIG1        0.0000
      3 C3          0.6818   -2.5058    1.6470 C.ar    1  LIG1        0.0000
      4 C4          0.8431   -3.5128    2.5925 C.ar    1  LIG1        0.0000
      5 C5          1.6969   -3.3300    3.6754 C.ar    1  LIG1        0.0000
      6 C6          2.3864   -2.1286    3.8004 C.ar    1  LIG1        0.0000
      7 F7          3.2050   -1.9455    4.8329 F       1  LIG1        0.0000
      8 C8          2.2332   -1.1138    2.8611 C.ar    1  LIG1        0.0000
      9 C9          1.3767   -1.3083    1.7823 C.ar    1  LIG1        0.0000
     10 N10         1.2304   -0.2815    0.8418 N.pl3   1  LIG1        0.0000
     11 C11         2.2532    0.6992    0.4642 C.3     1  LIG1        0.0000
     12 C12         1.4729    1.8866   -0.0706 C.3     1  LIG1        0.0000
     13 C13         0.0063    1.5055   -0.0015 C.3     1  LIG1        0.0000
     14 O14        -0.5883    1.9788    1.1997 O.3     1  LIG1        0.0000
     15 C15         0.0333   -0.0049    0.0514 C.3     1  LIG1        0.0000
     16 H          -0.4914    1.8313   -0.8054 H       1  LIG1        0.0000
     17 H           0.3427   -4.3729    2.4934 H       1  LIG1        0.0000
     18 H           1.8135   -4.0536    4.3557 H       1  LIG1        0.0000
     19 H           2.7335   -0.2537    2.9605 H       1  LIG1        0.0000
     20 H           2.8552    0.3263   -0.2419 H       1  LIG1        0.0000
     21 H           2.7975    0.9648    1.2600 H       1  LIG1        0.0000
     22 H           1.6464    2.6953    0.4914 H       1  LIG1        0.0000
     23 H           1.7365    2.0754   -1.0166 H       1  LIG1        0.0000
     24 H          -0.6166    2.9783    1.1862 H       1  LIG1        0.0000
     25 H          -0.7851   -0.3640    0.5000 H       1  LIG1        0.0000
     26 H           0.1094   -0.3959   -0.8658 H       1  LIG1        0.0000
@<TRIPOS>BOND
     1     1     2    3
     2     2     3    1
     3     3     4   ar
     4     4     5   ar
     5     5     6   ar
     6     6     7    1
     7     6     8   ar
     8     8     9   ar
     9     9     3   ar
    10     9    10    1
    11    10    11    1
    12    11    12    1
    13    12    13    1
    14    13    14    1
    15    13    15    1
    16    15    10    1
    17    13    16    1
    18     4    17    1
    19     5    18    1
    20     8    19    1
    21    11    20    1
    22    11    21    1
    23    12    22    1
    24    12    23    1
    25    14    24    1
    26    15    25    1
    27    15    26    1
