@<TRIPOS>MOLECULE
*****
 26 27 0 0 0
SMALL
USER_CHARGES

@<TRIPOS>ATOM
      1 N1         -1.8307    0.4906   -2.9344 N.1     1  LIG1        0.0000
      2 C2         -1.9166    1.2642   -2.1015 C.1     1  LIG1        0.0000
      3 C3         -2.0312    2.2958   -0.9907 C.ar    1  LIG1        0.0000
      4 C4         -3.1101    3.1729   -0.9649 C.ar    1  LIG1        0.0000
      5 C5         -3.2224    4.1193    0.0484 C.ar    1  LIG1        0.0000
      6 C6         -2.2431    4.1772    1.0343 C.ar    1  LIG1        0.0000
      7 F7         -2.3428    5.0791    2.0071 F       1  LIG1        0.0000
      8 C8         -1.1591    3.3052    1.0191 C.ar    1  LIG1        0.0000
      9 C9         -1.0576    2.3628    0.0008 C.ar    1  LIG1        0.0000
     10 N10         0.0363    1.4890   -0.0050 N.pl3   1  LIG1        0.0000
     11 C11         1.4502    1.8775   -0.0874 C.3     1  LIG1        0.0000
     12 C12         2.2413    0.7390    0.5277 C.3     1  LIG1        0.0000
     13 C13         1.2001   -0.3060    0.8831 C.3     1  LIG1        0.0000
     14 O14         1.6691   -1.6157    0.5905 O.3     1  LIG1        0.0000
     15 C15        -0.0278    0.0276    0.0653 C.3     1  LIG1        0.0000
     16 H           0.9804   -0.2402    1.8565 H       1  LIG1        0.0000
     17 H          -3.8088    3.1230   -1.6785 H       1  LIG1        0.0000
     18 H          -3.9978    4.7504    0.0678 H       1  LIG1        0.0000
     19 H          -0.4603    3.3552    1.7327 H       1  LIG1        0.0000
     20 H           1.6071    2.7233    0.4226 H       1  LIG1        0.0000
     21 H           1.7180    2.0092   -1.0418 H       1  LIG1        0.0000
     22 H           2.8995    0.3717   -0.1294 H       1  LIG1        0.0000
     23 H           2.7248    1.0477    1.3467 H       1  LIG1        0.0000
     24 H           2.4795   -1.8107    1.1431 H       1  LIG1        0.0000
     25 H           0.0208   -0.3819   -0.8458 H       1  LIG1        0.0000
     26 H          -0.8627   -0.2773    0.5236 H       1  LIG1        0.0000
@<TRIPOS>BOND
     1     1     2    3
     2     2     3    1
     3     3     4   ar
     4     4     5   ar
     5     5     6   ar
     6     6     7    1
     7     6     8   ar
     8     8     9   ar
     9     9     3   ar
    10     9    10    1
    11    10    11    1
    12    11    12    1
    13    12    13    1
    14    13    14    1
    15    13    15    1
    16    15    10    1
    17    13    16    1
    18     4    17    1
    19     5    18    1
    20     8    19    1
    21    11    20    1
    22    11    21    1
    23    12    22    1
    24    12    23    1
    25    14    24    1
    26    15    25    1
    27    15    26    1
