@<TRIPOS>MOLECULE
*****
 62 67 0 0 0
SMALL
USER_CHARGES

@<TRIPOS>ATOM
      1 C1          8.4779    2.2116    1.0059 C.3     1  LIG1        0.0000
      2 C2          7.1444    1.4859    0.9959 C.3     1  LIG1        0.0000
      3 C3          6.9992    0.1015    0.9769 C.3     1  LIG1        0.0000
      4 C4          5.7424   -0.4985    0.9691 C.3     1  LIG1        0.0000
      5 C5          5.6976   -2.0165    0.9497 C.3     1  LIG1        0.0000
      6 C6          4.5635    0.2389    0.9785 C.3     1  LIG1        0.0000
      7 N7          3.2095   -0.0342    0.9813 N.2     1  LIG1        0.0000
      8 C8          2.4017    1.0000    1.0000 C.2     1  LIG1        0.0000
      9 N9          1.0000    1.0000    1.0000 N.am    1  LIG1        0.0000
     10 C10         0.2650    1.0177   -0.2729 C.3     1  LIG1        0.0000
     11 C11         0.2272   -0.3858   -0.8559 C.3     1  LIG1        0.0000
     12 C12         1.2410   -0.8029   -1.7120 C.3     1  LIG1        0.0000
     13 C13         1.1982   -2.0885   -2.2413 C.3     1  LIG1        0.0000
     14 C14         0.1493   -2.9421   -1.9130 C.3     1  LIG1        0.0000
     15 C15        -0.8602   -2.5166   -1.0558 C.3     1  LIG1        0.0000
     16 C16        -0.8253   -1.2321   -0.5224 C.3     1  LIG1        0.0000
     17 C17         0.3150    0.9835    2.1863 C.2     1  LIG1        0.0000
     18 O18        -0.8850    0.9835    2.1863 O.2     1  LIG1        0.0000
     19 C19         1.0753    0.9651    3.5031 C.3     1  LIG1        0.0000
     20 C20         1.9361   -0.2897    3.5282 C.3     1  LIG1        0.0000
     21 C21         2.6892   -0.4541    4.8414 C.3     1  LIG1        0.0000
     22 N22         1.8199   -0.2218    6.0058 N.pl3   1  LIG1        0.0000
     23 C23         2.0751   -0.9466    7.1797 C.2     1  LIG1        0.0000
     24 C24         3.1628   -1.8591    7.1652 C.2     1  LIG1        0.0000
     25 C25         3.4178   -2.5685    8.3103 C.2     1  LIG1        0.0000
     26 C26         2.6201   -2.4039    9.4760 C.2     1  LIG1        0.0000
     27 N27         2.6007   -2.8956   10.6973 N.2     1  LIG1        0.0000
     28 N28         1.6016   -2.3484   11.3554 N.2     1  LIG1        0.0000
     29 N29         1.0173   -1.5343   10.5854 N.2     1  LIG1        0.0000
     30 N30         1.6054   -1.5115    9.4031 N.pl3   1  LIG1        0.0000
     31 N31         1.3631   -0.8248    8.2917 N.2     1  LIG1        0.0000
     32 C32         0.6949    0.7280    5.9959 C.3     1  LIG1        0.0000
     33 C33         0.0500    0.8350    4.6214 C.3     1  LIG1        0.0000
     34 S34         3.3688    2.4039    1.0196 S.3     1  LIG1        0.0000
     35 C35         4.8475    1.5774    0.9948 C.3     1  LIG1        0.0000
     36 C36         6.0276    2.2944    1.0105 C.3     1  LIG1        0.0000
     37 H           9.2214    1.5430    0.9941 H       1  LIG1        0.0000
     38 H           8.5443    2.7982    0.1987 H       1  LIG1        0.0000
     39 H           8.5464    2.7717    1.8315 H       1  LIG1        0.0000
     40 H           7.8160   -0.4754    0.9686 H       1  LIG1        0.0000
     41 H           6.6302   -2.3774    0.9451 H       1  LIG1        0.0000
     42 H           5.2165   -2.3462    1.7620 H       1  LIG1        0.0000
     43 H           5.2166   -2.3253    0.1291 H       1  LIG1        0.0000
     44 H           0.7238    1.6328   -0.9142 H       1  LIG1        0.0000
     45 H          -0.6689    1.3380   -0.1142 H       1  LIG1        0.0000
     46 H           1.9925   -0.1854   -1.9443 H       1  LIG1        0.0000
     47 H           1.9213   -2.3994   -2.8581 H       1  LIG1        0.0000
     48 H           0.1213   -3.8658   -2.2951 H       1  LIG1        0.0000
     49 H          -1.6114   -3.1343   -0.8228 H       1  LIG1        0.0000
     50 H          -1.5487   -0.9207    0.0937 H       1  LIG1        0.0000
     51 H           1.6308    1.7892    3.6135 H       1  LIG1        0.0000
     52 H           2.6000   -0.2382    2.7821 H       1  LIG1        0.0000
     53 H           1.3462   -1.0861    3.3950 H       1  LIG1        0.0000
     54 H           3.0538   -1.3840    4.8906 H       1  LIG1        0.0000
     55 H           3.4439    0.2015    4.8655 H       1  LIG1        0.0000
     56 H           3.7243   -1.9804    6.3466 H       1  LIG1        0.0000
     57 H           4.1805   -3.2150    8.3262 H       1  LIG1        0.0000
     58 H           1.0318    1.6301    6.2653 H       1  LIG1        0.0000
     59 H           0.0064    0.4196    6.6523 H       1  LIG1        0.0000
     60 H          -0.4980    0.0143    4.4598 H       1  LIG1        0.0000
     61 H          -0.5432    1.6399    4.6076 H       1  LIG1        0.0000
     62 H           6.0680    3.2934    1.0303 H       1  LIG1        0.0000
@<TRIPOS>BOND
     1     1     2    1
     2     2     3   ar
     3     3     4   ar
     4     4     5    1
     5     4     6   ar
     6     6     7    1
     7     7     8    2
     8     8     9    1
     9     9    10    1
    10    10    11    1
    11    11    12   ar
    12    12    13   ar
    13    13    14   ar
    14    14    15   ar
    15    15    16   ar
    16    16    11   ar
    17     9    17   am
    18    17    18    2
    19    17    19    1
    20    19    20    1
    21    20    21    1
    22    21    22    1
    23    22    23    1
    24    23    24    1
    25    24    25    2
    26    25    26    1
    27    26    27    2
    28    27    28    1
    29    28    29    2
    30    29    30    1
    31    30    26    1
    32    30    31    1
    33    31    23    2
    34    22    32    1
    35    32    33    1
    36    33    19    1
    37     8    34    1
    38    34    35    1
    39    35     6   ar
    40    35    36   ar
    41    36     2   ar
    42     1    37    1
    43     1    38    1
    44     1    39    1
    45     3    40    1
    46     5    41    1
    47     5    42    1
    48     5    43    1
    49    10    44    1
    50    10    45    1
    51    12    46    1
    52    13    47    1
    53    14    48    1
    54    15    49    1
    55    16    50    1
    56    19    51    1
    57    20    52    1
    58    20    53    1
    59    21    54    1
    60    21    55    1
    61    24    56    1
    62    25    57    1
    63    32    58    1
    64    32    59    1
    65    33    60    1
    66    33    61    1
    67    36    62    1
