@<TRIPOS>MOLECULE
*****
 62 67 0 0 0
SMALL
USER_CHARGES

@<TRIPOS>ATOM
      1 C1          8.4779   -0.2116    0.9941 C.3     1  LIG1        0.0000
      2 C2          7.1444    0.5141    1.0041 C.3     1  LIG1        0.0000
      3 C3          6.9992    1.8985    1.0231 C.3     1  LIG1        0.0000
      4 C4          5.7424    2.4985    1.0309 C.3     1  LIG1        0.0000
      5 C5          5.6976    4.0165    1.0503 C.3     1  LIG1        0.0000
      6 C6          4.5635    1.7611    1.0215 C.3     1  LIG1        0.0000
      7 N7          3.2095    2.0342    1.0187 N.2     1  LIG1        0.0000
      8 C8          2.4017    1.0000    1.0000 C.2     1  LIG1        0.0000
      9 N9          1.0000    1.0000    1.0000 N.am    1  LIG1        0.0000
     10 C10         0.2650    1.0177   -0.2729 C.3     1  LIG1        0.0000
     11 C11         0.2272    2.4370   -0.8165 C.3     1  LIG1        0.0000
     12 C12        -0.8209    3.2810   -0.4645 C.3     1  LIG1        0.0000
     13 C13        -0.8480    4.5777   -0.9669 C.3     1  LIG1        0.0000
     14 C14         0.1661    5.0184   -1.8117 C.3     1  LIG1        0.0000
     15 C15         1.2106    4.1676   -2.1584 C.3     1  LIG1        0.0000
     16 C16         1.2450    2.8688   -1.6607 C.3     1  LIG1        0.0000
     17 C17         0.3150    0.9835    2.1863 C.2     1  LIG1        0.0000
     18 O18        -0.8850    0.9835    2.1863 O.2     1  LIG1        0.0000
     19 C19         1.0753    0.9651    3.5031 C.3     1  LIG1        0.0000
     20 C20         1.9361    2.2188    3.5632 C.3     1  LIG1        0.0000
     21 C21         2.8059    2.2697    4.8119 C.3     1  LIG1        0.0000
     22 N22         3.4823    0.9871    5.0628 N.pl3   1  LIG1        0.0000
     23 C23         4.7507    1.0116    5.6621 C.2     1  LIG1        0.0000
     24 C24         5.2980    2.2801    5.9900 C.2     1  LIG1        0.0000
     25 C25         6.5363    2.3097    6.5777 C.2     1  LIG1        0.0000
     26 C26         7.2559    1.1134    6.8482 C.2     1  LIG1        0.0000
     27 N27         8.4120    0.7968    7.3933 N.2     1  LIG1        0.0000
     28 N28         8.5421   -0.5122    7.3735 N.2     1  LIG1        0.0000
     29 N29         7.5052   -1.0065    6.8466 N.2     1  LIG1        0.0000
     30 N30         6.6589   -0.0516    6.5055 N.pl3   1  LIG1        0.0000
     31 N31         5.4578   -0.0756    5.9379 N.2     1  LIG1        0.0000
     32 C32         2.8957   -0.3167    4.7105 C.3     1  LIG1        0.0000
     33 C33         2.0169   -0.2313    3.4708 C.3     1  LIG1        0.0000
     34 S34         3.3688   -0.4039    0.9804 S.3     1  LIG1        0.0000
     35 C35         4.8475    0.4226    1.0052 C.3     1  LIG1        0.0000
     36 C36         6.0276   -0.2944    0.9895 C.3     1  LIG1        0.0000
     37 H           9.2214    0.4570    1.0059 H       1  LIG1        0.0000
     38 H           8.5443   -0.7982    1.8013 H       1  LIG1        0.0000
     39 H           8.5464   -0.7717    0.1685 H       1  LIG1        0.0000
     40 H           7.8160    2.4754    1.0314 H       1  LIG1        0.0000
     41 H           6.6302    4.3774    1.0549 H       1  LIG1        0.0000
     42 H           5.2165    4.3462    0.2380 H       1  LIG1        0.0000
     43 H           5.2166    4.3253    1.8709 H       1  LIG1        0.0000
     44 H          -0.6689    0.6932   -0.1231 H       1  LIG1        0.0000
     45 H           0.7238    0.4208   -0.9311 H       1  LIG1        0.0000
     46 H          -1.5470    2.9591    0.1432 H       1  LIG1        0.0000
     47 H          -1.5966    5.1935   -0.7210 H       1  LIG1        0.0000
     48 H           0.1439    5.9513   -2.1714 H       1  LIG1        0.0000
     49 H           1.9371    4.4896   -2.7655 H       1  LIG1        0.0000
     50 H           1.9930    2.2526   -1.9071 H       1  LIG1        0.0000
     51 H           0.4509    0.9153    4.2826 H       1  LIG1        0.0000
     52 H           1.3373    3.0196    3.5566 H       1  LIG1        0.0000
     53 H           2.5292    2.2394    2.7583 H       1  LIG1        0.0000
     54 H           3.4976    2.9824    4.6953 H       1  LIG1        0.0000
     55 H           2.2293    2.4903    5.5986 H       1  LIG1        0.0000
     56 H           4.7968    3.1240    5.7985 H       1  LIG1        0.0000
     57 H           6.9418    3.1908    6.8212 H       1  LIG1        0.0000
     58 H           2.3411   -0.6388    5.4777 H       1  LIG1        0.0000
     59 H           3.6353   -0.9672    4.5376 H       1  LIG1        0.0000
     60 H           2.6050   -0.1546    2.6657 H       1  LIG1        0.0000
     61 H           1.4712   -1.0668    3.4067 H       1  LIG1        0.0000
     62 H           6.0680   -1.2934    0.9697 H       1  LIG1        0.0000
@<TRIPOS>BOND
     1     1     2    1
     2     2     3   ar
     3     3     4   ar
     4     4     5    1
     5     4     6   ar
     6     6     7    1
     7     7     8    2
     8     8     9    1
     9     9    10    1
    10    10    11    1
    11    11    12   ar
    12    12    13   ar
    13    13    14   ar
    14    14    15   ar
    15    15    16   ar
    16    16    11   ar
    17     9    17   am
    18    17    18    2
    19    17    19    1
    20    19    20    1
    21    20    21    1
    22    21    22    1
    23    22    23    1
    24    23    24    1
    25    24    25    2
    26    25    26    1
    27    26    27    2
    28    27    28    1
    29    28    29    2
    30    29    30    1
    31    30    26    1
    32    30    31    1
    33    31    23    2
    34    22    32    1
    35    32    33    1
    36    33    19    1
    37     8    34    1
    38    34    35    1
    39    35     6   ar
    40    35    36   ar
    41    36     2   ar
    42     1    37    1
    43     1    38    1
    44     1    39    1
    45     3    40    1
    46     5    41    1
    47     5    42    1
    48     5    43    1
    49    10    44    1
    50    10    45    1
    51    12    46    1
    52    13    47    1
    53    14    48    1
    54    15    49    1
    55    16    50    1
    56    19    51    1
    57    20    52    1
    58    20    53    1
    59    21    54    1
    60    21    55    1
    61    24    56    1
    62    25    57    1
    63    32    58    1
    64    32    59    1
    65    33    60    1
    66    33    61    1
    67    36    62    1
