@<TRIPOS>MOLECULE

  24   26
SMALL
USER_CHARGES
@<TRIPOS>ATOM
   1 O1           4.3068     1.5967    -0.0184 O.co2        1    LIG   0.0000
   2 N2           3.6505     0.5802    -0.0281 N.2          1    LIG   1.0000
   3 O3           4.2071    -0.5051    -0.0501 O.co2        1    LIG  -1.0000
   4 C4           2.2545     0.6496    -0.0140 C.2          1    LIG   0.0000
   5 S5           1.3152     2.0710     0.0168 S.3          1    LIG   0.0000
   6 C6          -0.2271     1.3419     0.0112 C.2          1    LIG   0.0000
   7 C7           0.0174     0.0034    -0.0166 C.2          1    LIG   0.0000
   8 C8           1.3792    -0.3951    -0.0298 C.2          1    LIG   0.0000
   9 N9           1.7972    -1.7342    -0.0602 N.pl3        1    LIG   0.0000
  10 C10          1.5080    -2.7680     0.9411 C.3          1    LIG   0.0000
  11 C11          1.5934    -4.0826     0.1892 C.2          1    LIG   0.0000
  12 C12          1.2886    -5.4091     0.2270 C.2          1    LIG   0.0000
  13 N13          1.7649    -5.9577    -0.9257 N.pl3        1    LIG   0.0000
  14 N14          2.3225    -4.9997    -1.6307 N.2          1    LIG   0.0000
  15 C15          2.2484    -3.8499    -1.0100 C.2          1    LIG   0.0000
  16 C16          2.6128    -2.3820    -1.0933 C.3          1    LIG   0.0000
  17 H            1.7012    -6.9204    -1.1888 H            1    LIG   0.0000
  18 H           -1.1167     1.7984     0.0253 H            1    LIG   0.0000
  19 H           -0.7255    -0.6659    -0.0273 H            1    LIG   0.0000
  20 H            0.5924    -2.6407     1.3225 H            1    LIG   0.0000
  21 H            2.1830    -2.7410     1.6784 H            1    LIG   0.0000
  22 H            0.8071    -5.8889     0.9604 H            1    LIG   0.0000
  23 H            3.5865    -2.2497    -0.9079 H            1    LIG   0.0000
  24 H            2.3928    -2.0152    -1.9972 H            1    LIG   0.0000
@<TRIPOS>BOND
   1        1        2 ar
   2        2        3 ar
   3        2        4 1
   4        4        5 1
   5        5        6 1
   6        6        7 2
   7        7        8 1
   8        8        4 2
   9        8        9 1
  10        9       10 1
  11       10       11 1
  12       11       12 2
  13       12       13 1
  14       13       14 1
  15       14       15 2
  16       15       11 1
  17       15       16 1
  18       16        9 1
  19       13       17 1
  20        6       18 1
  21        7       19 1
  22       10       20 1
  23       10       21 1
  24       12       22 1
  25       16       23 1
  26       16       24 1

@<TRIPOS>MOLECULE

  24   26
SMALL
USER_CHARGES
@<TRIPOS>ATOM
   1 O1           4.3068     1.5967    -0.0184 O.co2        1    LIG   0.0000
   2 N2           3.6505     0.5802    -0.0281 N.2          1    LIG   1.0000
   3 O3           4.2071    -0.5051    -0.0501 O.co2        1    LIG  -1.0000
   4 C4           2.2545     0.6496    -0.0140 C.2          1    LIG   0.0000
   5 S5           1.3152     2.0710     0.0168 S.3          1    LIG   0.0000
   6 C6          -0.2271     1.3419     0.0112 C.2          1    LIG   0.0000
   7 C7           0.0174     0.0034    -0.0166 C.2          1    LIG   0.0000
   8 C8           1.3792    -0.3951    -0.0298 C.2          1    LIG   0.0000
   9 N9           1.7972    -1.7342    -0.0602 N.pl3        1    LIG   0.0000
  10 C10          2.6304    -2.4175     0.9367 C.3          1    LIG   0.0000
  11 C11          2.2695    -3.8857     0.8153 C.2          1    LIG   0.0000
  12 C12          2.3480    -5.1053     1.4157 C.2          1    LIG   0.0000
  13 N13          1.7467    -5.9976     0.5798 N.pl3        1    LIG   0.0000
  14 N14          1.3157    -5.3402    -0.4728 N.2          1    LIG   0.0000
  15 C15          1.6013    -4.0661    -0.3857 C.2          1    LIG   0.0000
  16 C16          1.4949    -2.7310    -1.0932 C.3          1    LIG   0.0000
  17 H            1.6503    -6.9800     0.7395 H            1    LIG   0.0000
  18 H           -1.1167     1.7984     0.0253 H            1    LIG   0.0000
  19 H           -0.7255    -0.6659    -0.0273 H            1    LIG   0.0000
  20 H            2.4255    -2.0805     1.8556 H            1    LIG   0.0000
  21 H            3.6006    -2.2771     0.7388 H            1    LIG   0.0000
  22 H            2.7670    -5.3074     2.3009 H            1    LIG   0.0000
  23 H            2.1564    -2.6750    -1.8411 H            1    LIG   0.0000
  24 H            0.5720    -2.5960    -1.4537 H            1    LIG   0.0000
@<TRIPOS>BOND
   1        1        2 ar
   2        2        3 ar
   3        2        4 1
   4        4        5 1
   5        5        6 1
   6        6        7 2
   7        7        8 1
   8        8        4 2
   9        8        9 1
  10        9       10 1
  11       10       11 1
  12       11       12 2
  13       12       13 1
  14       13       14 1
  15       14       15 2
  16       15       11 1
  17       15       16 1
  18       16        9 1
  19       13       17 1
  20        6       18 1
  21        7       19 1
  22       10       20 1
  23       10       21 1
  24       12       22 1
  25       16       23 1
  26       16       24 1

@<TRIPOS>MOLECULE

  24   26
SMALL
USER_CHARGES
@<TRIPOS>ATOM
   1 O1           4.3068     1.5967    -0.0184 O.co2        1    LIG   0.0000
   2 N2           3.6505     0.5802    -0.0281 N.2          1    LIG   1.0000
   3 O3           4.2071    -0.5051    -0.0501 O.co2        1    LIG  -1.0000
   4 C4           2.2545     0.6496    -0.0140 C.2          1    LIG   0.0000
   5 S5           1.3152     2.0710     0.0168 S.3          1    LIG   0.0000
   6 C6          -0.2271     1.3419     0.0112 C.2          1    LIG   0.0000
   7 C7           0.0174     0.0034    -0.0166 C.2          1    LIG   0.0000
   8 C8           1.3792    -0.3951    -0.0298 C.2          1    LIG   0.0000
   9 N9           1.7972    -1.7342    -0.0602 N.pl3        1    LIG   0.0000
  10 C10          2.6101    -2.3777    -1.0995 C.3          1    LIG   0.0000
  11 C11          3.2971    -3.5373    -0.4038 C.2          1    LIG   0.0000
  12 C12          4.3016    -4.4521    -0.4923 C.2          1    LIG   0.0000
  13 N13          4.2367    -5.2213     0.6305 N.pl3        1    LIG   0.0000
  14 N14          3.2424    -4.7805     1.3671 N.2          1    LIG   0.0000
  15 C15          2.6415    -3.7682     0.7955 C.2          1    LIG   0.0000
  16 C16          1.5082    -2.7729     0.9347 C.3          1    LIG   0.0000
  17 H            4.8399    -5.9869     0.8544 H            1    LIG   0.0000
  18 H           -1.1167     1.7984     0.0253 H            1    LIG   0.0000
  19 H           -0.7255    -0.6659    -0.0273 H            1    LIG   0.0000
  20 H            3.2858    -1.7367    -1.4635 H            1    LIG   0.0000
  21 H            2.0300    -2.7089    -1.8437 H            1    LIG   0.0000
  22 H            4.9610    -4.5422    -1.2387 H            1    LIG   0.0000
  23 H            0.6297    -3.2102     0.7423 H            1    LIG   0.0000
  24 H            1.4922    -2.3837     1.8557 H            1    LIG   0.0000
@<TRIPOS>BOND
   1        1        2 ar
   2        2        3 ar
   3        2        4 1
   4        4        5 1
   5        5        6 1
   6        6        7 2
   7        7        8 1
   8        8        4 2
   9        8        9 1
  10        9       10 1
  11       10       11 1
  12       11       12 2
  13       12       13 1
  14       13       14 1
  15       14       15 2
  16       15       11 1
  17       15       16 1
  18       16        9 1
  19       13       17 1
  20        6       18 1
  21        7       19 1
  22       10       20 1
  23       10       21 1
  24       12       22 1
  25       16       23 1
  26       16       24 1

@<TRIPOS>MOLECULE

  24   26
SMALL
USER_CHARGES
@<TRIPOS>ATOM
   1 O1           4.3068     1.5967    -0.0184 O.co2        1    LIG   0.0000
   2 N2           3.6505     0.5802    -0.0281 N.2          1    LIG   1.0000
   3 O3           4.2071    -0.5051    -0.0501 O.co2        1    LIG  -1.0000
   4 C4           2.2545     0.6496    -0.0140 C.2          1    LIG   0.0000
   5 S5           1.3152     2.0710     0.0168 S.3          1    LIG   0.0000
   6 C6          -0.2271     1.3419     0.0112 C.2          1    LIG   0.0000
   7 C7           0.0174     0.0034    -0.0166 C.2          1    LIG   0.0000
   8 C8           1.3792    -0.3951    -0.0298 C.2          1    LIG   0.0000
   9 N9           1.7972    -1.7342    -0.0602 N.pl3        1    LIG   0.0000
  10 C10          1.4876    -2.7282    -1.0951 C.3          1    LIG   0.0000
  11 C11          2.6210    -3.7341    -1.0299 C.2          1    LIG   0.0000
  12 C12          3.2421    -4.7559    -1.6811 C.2          1    LIG   0.0000
  13 N13          4.2550    -5.1815    -0.8750 N.pl3        1    LIG   0.0000
  14 N14          4.2492    -4.4399     0.2093 N.2          1    LIG   0.0000
  15 C15          3.2886    -3.5520     0.1712 C.2          1    LIG   0.0000
  16 C16          2.6260    -2.4239     0.9346 C.3          1    LIG   0.0000
  17 H            4.8908    -5.9273    -1.0739 H            1    LIG   0.0000
  18 H           -1.1167     1.7984     0.0253 H            1    LIG   0.0000
  19 H           -0.7255    -0.6659    -0.0273 H            1    LIG   0.0000
  20 H            1.4527    -2.2969    -1.9967 H            1    LIG   0.0000
  21 H            0.6125    -3.1727    -0.9041 H            1    LIG   0.0000
  22 H            3.0011    -5.1237    -2.5792 H            1    LIG   0.0000
  23 H            2.0598    -2.7849     1.6755 H            1    LIG   0.0000
  24 H            3.3130    -1.8030     1.3122 H            1    LIG   0.0000
@<TRIPOS>BOND
   1        1        2 ar
   2        2        3 ar
   3        2        4 1
   4        4        5 1
   5        5        6 1
   6        6        7 2
   7        7        8 1
   8        8        4 2
   9        8        9 1
  10        9       10 1
  11       10       11 1
  12       11       12 2
  13       12       13 1
  14       13       14 1
  15       14       15 2
  16       15       11 1
  17       15       16 1
  18       16        9 1
  19       13       17 1
  20        6       18 1
  21        7       19 1
  22       10       20 1
  23       10       21 1
  24       12       22 1
  25       16       23 1
  26       16       24 1

@<TRIPOS>MOLECULE

  24   26
SMALL
USER_CHARGES
@<TRIPOS>ATOM
   1 O1           4.3068     1.5967    -0.0184 O.co2        1    LIG   0.0000
   2 N2           3.6505     0.5802    -0.0281 N.2          1    LIG   1.0000
   3 O3           4.2071    -0.5051    -0.0501 O.co2        1    LIG  -1.0000
   4 C4           2.2545     0.6496    -0.0140 C.2          1    LIG   0.0000
   5 S5           1.3152     2.0710     0.0168 S.3          1    LIG   0.0000
   6 C6          -0.2271     1.3419     0.0112 C.2          1    LIG   0.0000
   7 C7           0.0174     0.0034    -0.0166 C.2          1    LIG   0.0000
   8 C8           1.3792    -0.3951    -0.0298 C.2          1    LIG   0.0000
   9 N9           1.7956    -1.7288    -0.0601 N.pl3        1    LIG   0.0000
  10 C10          1.4974    -2.7630     0.9282 C.3          1    LIG   0.0000
  11 C11          2.6788    -3.7164     0.8671 C.2          1    LIG   0.0000
  12 C12          3.3302    -4.7224     1.5182 C.2          1    LIG   0.0000
  13 N13          4.3834    -5.0797     0.7352 N.pl3        1    LIG   0.0000
  14 N14          4.3520    -4.3108    -0.3276 N.2          1    LIG   0.0000
  15 C15          3.3318    -3.4711    -0.3322 C.2          1    LIG   0.0000
  16 C16          2.6102    -2.3779    -1.0911 C.3          1    LIG   0.0000
  17 H            5.0551    -5.7938     0.9324 H            1    LIG   0.0000
  18 H           -1.1167     1.7984     0.0253 H            1    LIG   0.0000
  19 H           -0.7255    -0.6659    -0.0273 H            1    LIG   0.0000
  20 H            0.6494    -3.2385     0.6945 H            1    LIG   0.0000
  21 H            1.4149    -2.3634     1.8412 H            1    LIG   0.0000
  22 H            3.0814    -5.1205     2.4011 H            1    LIG   0.0000
  23 H            3.2599    -1.7324    -1.4927 H            1    LIG   0.0000
  24 H            2.0343    -2.7632    -1.8122 H            1    LIG   0.0000
@<TRIPOS>BOND
   1        1        2 ar
   2        2        3 ar
   3        2        4 1
   4        4        5 1
   5        5        6 1
   6        6        7 2
   7        7        8 1
   8        8        4 2
   9        8        9 1
  10        9       10 1
  11       10       11 1
  12       11       12 2
  13       12       13 1
  14       13       14 1
  15       14       15 2
  16       15       11 1
  17       15       16 1
  18       16        9 1
  19       13       17 1
  20        6       18 1
  21        7       19 1
  22       10       20 1
  23       10       21 1
  24       12       22 1
  25       16       23 1
  26       16       24 1

@<TRIPOS>MOLECULE

  24   26
SMALL
USER_CHARGES
@<TRIPOS>ATOM
   1 O1           4.3068     1.5967    -0.0184 O.co2        1    LIG   0.0000
   2 N2           3.6505     0.5802    -0.0281 N.2          1    LIG   1.0000
   3 O3           4.2071    -0.5051    -0.0501 O.co2        1    LIG  -1.0000
   4 C4           2.2545     0.6496    -0.0140 C.2          1    LIG   0.0000
   5 S5           1.3152     2.0710     0.0168 S.3          1    LIG   0.0000
   6 C6          -0.2271     1.3419     0.0112 C.2          1    LIG   0.0000
   7 C7           0.0174     0.0034    -0.0166 C.2          1    LIG   0.0000
   8 C8           1.3792    -0.3951    -0.0298 C.2          1    LIG   0.0000
   9 N9           1.7956    -1.7288    -0.0601 N.pl3        1    LIG   0.0000
  10 C10          2.6133    -2.4148     0.9378 C.3          1    LIG   0.0000
  11 C11          3.3595    -3.4879     0.1632 C.2          1    LIG   0.0000
  12 C12          4.4120    -4.3547     0.1975 C.2          1    LIG   0.0000
  13 N13          4.3983    -5.0362    -0.9794 N.pl3        1    LIG   0.0000
  14 N14          3.3824    -4.5829    -1.6755 N.2          1    LIG   0.0000
  15 C15          2.6881    -3.6560    -1.0393 C.2          1    LIG   0.0000
  16 C16          1.4947    -2.7262    -1.0910 C.3          1    LIG   0.0000
  17 H            5.0412    -5.7485    -1.2612 H            1    LIG   0.0000
  18 H           -1.1167     1.7984     0.0253 H            1    LIG   0.0000
  19 H           -0.7255    -0.6659    -0.0273 H            1    LIG   0.0000
  20 H            2.0358    -2.8272     1.6423 H            1    LIG   0.0000
  21 H            3.2557    -1.7780     1.3640 H            1    LIG   0.0000
  22 H            5.0675    -4.4675     0.9443 H            1    LIG   0.0000
  23 H            1.4139    -2.2974    -1.9908 H            1    LIG   0.0000
  24 H            0.6495    -3.2167    -0.8784 H            1    LIG   0.0000
@<TRIPOS>BOND
   1        1        2 ar
   2        2        3 ar
   3        2        4 1
   4        4        5 1
   5        5        6 1
   6        6        7 2
   7        7        8 1
   8        8        4 2
   9        8        9 1
  10        9       10 1
  11       10       11 1
  12       11       12 2
  13       12       13 1
  14       13       14 1
  15       14       15 2
  16       15       11 1
  17       15       16 1
  18       16        9 1
  19       13       17 1
  20        6       18 1
  21        7       19 1
  22       10       20 1
  23       10       21 1
  24       12       22 1
  25       16       23 1
  26       16       24 1

@<TRIPOS>MOLECULE

  24   26
SMALL
USER_CHARGES
@<TRIPOS>ATOM
   1 O1           4.3068     1.5967    -0.0184 O.co2        1    LIG   0.0000
   2 N2           3.6505     0.5802    -0.0281 N.2          1    LIG   1.0000
   3 O3           4.2071    -0.5051    -0.0501 O.co2        1    LIG  -1.0000
   4 C4           2.2545     0.6496    -0.0140 C.2          1    LIG   0.0000
   5 S5           1.3152     2.0710     0.0168 S.3          1    LIG   0.0000
   6 C6          -0.2271     1.3419     0.0112 C.2          1    LIG   0.0000
   7 C7           0.0174     0.0034    -0.0166 C.2          1    LIG   0.0000
   8 C8           1.3792    -0.3951    -0.0298 C.2          1    LIG   0.0000
   9 N9           1.7956    -1.7288    -0.0601 N.pl3        1    LIG   0.0000
  10 C10          2.6161    -2.3681    -1.0863 C.3          1    LIG   0.0000
  11 C11          2.1874    -3.8257    -1.0799 C.2          1    LIG   0.0000
  12 C12          2.2153    -4.9957    -1.7803 C.2          1    LIG   0.0000
  13 N13          1.5624    -5.9205    -1.0264 N.pl3        1    LIG   0.0000
  14 N14          1.1647    -5.3148     0.0676 N.2          1    LIG   0.0000
  15 C15          1.5263    -4.0450     0.1200 C.2          1    LIG   0.0000
  16 C16          1.5079    -2.7679     0.9327 C.3          1    LIG   0.0000
  17 H            1.4134    -6.8810    -1.2616 H            1    LIG   0.0000
  18 H           -1.1167     1.7984     0.0253 H            1    LIG   0.0000
  19 H           -0.7255    -0.6659    -0.0273 H            1    LIG   0.0000
  20 H            3.5870    -2.2861    -0.8616 H            1    LIG   0.0000
  21 H            2.4450    -1.9552    -1.9809 H            1    LIG   0.0000
  22 H            2.6349    -5.1448    -2.6756 H            1    LIG   0.0000
  23 H            0.6117    -2.6237     1.3521 H            1    LIG   0.0000
  24 H            2.2100    -2.7867     1.6446 H            1    LIG   0.0000
@<TRIPOS>BOND
   1        1        2 ar
   2        2        3 ar
   3        2        4 1
   4        4        5 1
   5        5        6 1
   6        6        7 2
   7        7        8 1
   8        8        4 2
   9        8        9 1
  10        9       10 1
  11       10       11 1
  12       11       12 2
  13       12       13 1
  14       13       14 1
  15       14       15 2
  16       15       11 1
  17       15       16 1
  18       16        9 1
  19       13       17 1
  20        6       18 1
  21        7       19 1
  22       10       20 1
  23       10       21 1
  24       12       22 1
  25       16       23 1
  26       16       24 1

@<TRIPOS>MOLECULE

  24   26
SMALL
USER_CHARGES
@<TRIPOS>ATOM
   1 O1           4.3068     1.5967    -0.0184 O.co2        1    LIG   0.0000
   2 N2           3.6505     0.5802    -0.0281 N.2          1    LIG   1.0000
   3 O3           4.2071    -0.5051    -0.0501 O.co2        1    LIG  -1.0000
   4 C4           2.2545     0.6496    -0.0140 C.2          1    LIG   0.0000
   5 S5           1.3152     2.0710     0.0168 S.3          1    LIG   0.0000
   6 C6          -0.2271     1.3419     0.0112 C.2          1    LIG   0.0000
   7 C7           0.0174     0.0034    -0.0166 C.2          1    LIG   0.0000
   8 C8           1.3792    -0.3951    -0.0298 C.2          1    LIG   0.0000
   9 N9           1.7956    -1.7288    -0.0601 N.pl3        1    LIG   0.0000
  10 C10          1.5002    -2.7162    -1.0959 C.3          1    LIG   0.0000
  11 C11          1.5067    -4.0541    -0.3760 C.2          1    LIG   0.0000
  12 C12          1.1335    -5.3633    -0.4597 C.2          1    LIG   0.0000
  13 N13          1.5475    -5.9640     0.6882 N.pl3        1    LIG   0.0000
  14 N14          2.1342    -5.0427     1.4154 N.2          1    LIG   0.0000
  15 C15          2.1700    -3.8601     0.8271 C.2          1    LIG   0.0000
  16 C16          2.6235    -2.4197     0.9326 C.3          1    LIG   0.0000
  17 H            1.4274    -6.9264     0.9320 H            1    LIG   0.0000
  18 H           -1.1167     1.7984     0.0253 H            1    LIG   0.0000
  19 H           -0.7255    -0.6659    -0.0273 H            1    LIG   0.0000
  20 H            2.2006    -2.6975    -1.8094 H            1    LIG   0.0000
  21 H            0.6042    -2.5407    -1.5037 H            1    LIG   0.0000
  22 H            0.6488    -5.7978    -1.2188 H            1    LIG   0.0000
  23 H            2.4577    -2.0587     1.8503 H            1    LIG   0.0000
  24 H            3.5947    -2.3333     0.7108 H            1    LIG   0.0000
@<TRIPOS>BOND
   1        1        2 ar
   2        2        3 ar
   3        2        4 1
   4        4        5 1
   5        5        6 1
   6        6        7 2
   7        7        8 1
   8        8        4 2
   9        8        9 1
  10        9       10 1
  11       10       11 1
  12       11       12 2
  13       12       13 1
  14       13       14 1
  15       14       15 2
  16       15       11 1
  17       15       16 1
  18       16        9 1
  19       13       17 1
  20        6       18 1
  21        7       19 1
  22       10       20 1
  23       10       21 1
  24       12       22 1
  25       16       23 1
  26       16       24 1

@<TRIPOS>MOLECULE

  24   26
SMALL
USER_CHARGES
@<TRIPOS>ATOM
   1 O1           4.3009     1.3414     0.6514 O.co2        1    LIG   0.0000
   2 N2           3.6505     0.5802    -0.0281 N.2          1    LIG   1.0000
   3 O3           4.2131    -0.2478    -0.7254 O.co2        1    LIG  -1.0000
   4 C4           2.2545     0.6496    -0.0140 C.2          1    LIG   0.0000
   5 S5           1.3152     2.0710     0.0168 S.3          1    LIG   0.0000
   6 C6          -0.2271     1.3419     0.0112 C.2          1    LIG   0.0000
   7 C7           0.0174     0.0034    -0.0166 C.2          1    LIG   0.0000
   8 C8           1.3792    -0.3951    -0.0298 C.2          1    LIG   0.0000
   9 N9           1.7956    -1.7288    -0.0601 N.pl3        1    LIG   0.0000
  10 C10          1.0912    -2.8535    -0.6717 C.3          1    LIG   0.0000
  11 C11          1.5052    -4.0664     0.1444 C.2          1    LIG   0.0000
  12 C12          1.2018    -5.3624     0.4417 C.2          1    LIG   0.0000
  13 N13          2.1414    -5.7931     1.3258 N.pl3        1    LIG   0.0000
  14 N14          2.9578    -4.7884     1.5404 N.2          1    LIG   0.0000
  15 C15          2.6511    -3.7102     0.8409 C.2          1    LIG   0.0000
  16 C16          3.0290    -2.2834     0.5049 C.3          1    LIG   0.0000
  17 H            2.1991    -6.7036     1.7350 H            1    LIG   0.0000
  18 H           -1.1167     1.7984     0.0253 H            1    LIG   0.0000
  19 H           -0.7255    -0.6659    -0.0273 H            1    LIG   0.0000
  20 H            1.3654    -2.9624    -1.6272 H            1    LIG   0.0000
  21 H            0.1018    -2.7175    -0.6222 H            1    LIG   0.0000
  22 H            0.4360    -5.8937     0.0794 H            1    LIG   0.0000
  23 H            3.3029    -1.7830     1.3262 H            1    LIG   0.0000
  24 H            3.7718    -2.2581    -0.1641 H            1    LIG   0.0000
@<TRIPOS>BOND
   1        1        2 ar
   2        2        3 ar
   3        2        4 1
   4        4        5 1
   5        5        6 1
   6        6        7 2
   7        7        8 1
   8        8        4 2
   9        8        9 1
  10        9       10 1
  11       10       11 1
  12       11       12 2
  13       12       13 1
  14       13       14 1
  15       14       15 2
  16       15       11 1
  17       15       16 1
  18       16        9 1
  19       13       17 1
  20        6       18 1
  21        7       19 1
  22       10       20 1
  23       10       21 1
  24       12       22 1
  25       16       23 1
  26       16       24 1

@<TRIPOS>MOLECULE

  24   26
SMALL
USER_CHARGES
@<TRIPOS>ATOM
   1 O1           4.2884     1.3623    -0.6955 O.co2        1    LIG   0.0000
   2 N2           3.6505     0.5802    -0.0281 N.2          1    LIG   1.0000
   3 O3           4.2257    -0.2688     0.6327 O.co2        1    LIG  -1.0000
   4 C4           2.2545     0.6496    -0.0140 C.2          1    LIG   0.0000
   5 S5           1.3152     2.0710     0.0168 S.3          1    LIG   0.0000
   6 C6          -0.2271     1.3419     0.0112 C.2          1    LIG   0.0000
   7 C7           0.0174     0.0034    -0.0166 C.2          1    LIG   0.0000
   8 C8           1.3792    -0.3951    -0.0298 C.2          1    LIG   0.0000
   9 N9           1.7972    -1.7342    -0.0602 N.pl3        1    LIG   0.0000
  10 C10          1.0929    -2.8879     0.5124 C.3          1    LIG   0.0000
  11 C11          1.5631    -4.0810    -0.2976 C.2          1    LIG   0.0000
  12 C12          1.3136    -5.3822    -0.6114 C.2          1    LIG   0.0000
  13 N13          2.2978    -5.7791    -1.4661 N.pl3        1    LIG   0.0000
  14 N14          3.0982    -4.7567    -1.6657 N.2          1    LIG   0.0000
  15 C15          2.7051    -3.7078    -0.9889 C.2          1    LIG   0.0000
  16 C16          3.0247    -2.2631    -0.6648 C.3          1    LIG   0.0000
  17 H            2.3939    -6.6887    -1.8703 H            1    LIG   0.0000
  18 H           -1.1167     1.7984     0.0253 H            1    LIG   0.0000
  19 H           -0.7255    -0.6659    -0.0273 H            1    LIG   0.0000
  20 H            0.1033    -2.7731     0.4259 H            1    LIG   0.0000
  21 H            1.3323    -3.0020     1.4766 H            1    LIG   0.0000
  22 H            0.5534    -5.9400    -0.2782 H            1    LIG   0.0000
  23 H            3.7873    -2.2071    -0.0203 H            1    LIG   0.0000
  24 H            3.2537    -1.7578    -1.4968 H            1    LIG   0.0000
@<TRIPOS>BOND
   1        1        2 ar
   2        2        3 ar
   3        2        4 1
   4        4        5 1
   5        5        6 1
   6        6        7 2
   7        7        8 1
   8        8        4 2
   9        8        9 1
  10        9       10 1
  11       10       11 1
  12       11       12 2
  13       12       13 1
  14       13       14 1
  15       14       15 2
  16       15       11 1
  17       15       16 1
  18       16        9 1
  19       13       17 1
  20        6       18 1
  21        7       19 1
  22       10       20 1
  23       10       21 1
  24       12       22 1
  25       16       23 1
  26       16       24 1

@<TRIPOS>MOLECULE

  24   26
SMALL
USER_CHARGES
@<TRIPOS>ATOM
   1 O1           4.2884     1.3623    -0.6955 O.co2        1    LIG   0.0000
   2 N2           3.6505     0.5802    -0.0281 N.2          1    LIG   1.0000
   3 O3           4.2257    -0.2688     0.6327 O.co2        1    LIG  -1.0000
   4 C4           2.2545     0.6496    -0.0140 C.2          1    LIG   0.0000
   5 S5           1.3152     2.0710     0.0168 S.3          1    LIG   0.0000
   6 C6          -0.2271     1.3419     0.0112 C.2          1    LIG   0.0000
   7 C7           0.0174     0.0034    -0.0166 C.2          1    LIG   0.0000
   8 C8           1.3792    -0.3951    -0.0298 C.2          1    LIG   0.0000
   9 N9           1.7956    -1.7288    -0.0601 N.pl3        1    LIG   0.0000
  10 C10          3.0239    -2.2505    -0.6551 C.3          1    LIG   0.0000
  11 C11          2.6842    -3.6707    -1.0748 C.2          1    LIG   0.0000
  12 C12          3.0754    -4.7256    -1.8457 C.2          1    LIG   0.0000
  13 N13          2.1671    -5.7177    -1.6441 N.pl3        1    LIG   0.0000
  14 N14          1.2785    -5.2597    -0.7941 N.2          1    LIG   0.0000
  15 C15          1.5363    -4.0305    -0.3838 C.2          1    LIG   0.0000
  16 C16          1.0968    -2.8866     0.5051 C.3          1    LIG   0.0000
  17 H            2.1750    -6.6250    -2.0644 H            1    LIG   0.0000
  18 H           -1.1167     1.7984     0.0253 H            1    LIG   0.0000
  19 H           -0.7255    -0.6659    -0.0273 H            1    LIG   0.0000
  20 H            3.7667    -2.2499     0.0145 H            1    LIG   0.0000
  21 H            3.2901    -1.7034    -1.4487 H            1    LIG   0.0000
  22 H            3.8759    -4.7626    -2.4439 H            1    LIG   0.0000
  23 H            0.1055    -2.7616     0.4633 H            1    LIG   0.0000
  24 H            1.3733    -3.0436     1.4532 H            1    LIG   0.0000
@<TRIPOS>BOND
   1        1        2 ar
   2        2        3 ar
   3        2        4 1
   4        4        5 1
   5        5        6 1
   6        6        7 2
   7        7        8 1
   8        8        4 2
   9        8        9 1
  10        9       10 1
  11       10       11 1
  12       11       12 2
  13       12       13 1
  14       13       14 1
  15       14       15 2
  16       15       11 1
  17       15       16 1
  18       16        9 1
  19       13       17 1
  20        6       18 1
  21        7       19 1
  22       10       20 1
  23       10       21 1
  24       12       22 1
  25       16       23 1
  26       16       24 1

@<TRIPOS>MOLECULE

  24   26
SMALL
USER_CHARGES
@<TRIPOS>ATOM
   1 O1           4.2884     1.3623    -0.6955 O.co2        1    LIG   0.0000
   2 N2           3.6505     0.5802    -0.0281 N.2          1    LIG   1.0000
   3 O3           4.2257    -0.2688     0.6327 O.co2        1    LIG  -1.0000
   4 C4           2.2545     0.6496    -0.0140 C.2          1    LIG   0.0000
   5 S5           1.3152     2.0710     0.0168 S.3          1    LIG   0.0000
   6 C6          -0.2271     1.3419     0.0112 C.2          1    LIG   0.0000
   7 C7           0.0174     0.0034    -0.0166 C.2          1    LIG   0.0000
   8 C8           1.3792    -0.3951    -0.0298 C.2          1    LIG   0.0000
   9 N9           1.7958    -1.7297    -0.0601 N.pl3        1    LIG   0.0000
  10 C10          2.0759    -2.5434    -1.2450 C.3          1    LIG   0.0000
  11 C11          3.1319    -3.5273    -0.7898 C.2          1    LIG   0.0000
  12 C12          4.0975    -4.4049    -1.2168 C.2          1    LIG   0.0000
  13 N13          4.6104    -4.9925    -0.0957 N.pl3        1    LIG   0.0000
  14 N14          3.9914    -4.4718     0.9384 N.2          1    LIG   0.0000
  15 C15          3.1021    -3.5780     0.5883 C.2          1    LIG   0.0000
  16 C16          2.0659    -2.5945     1.0947 C.3          1    LIG   0.0000
  17 H            5.3258    -5.6907    -0.0676 H            1    LIG   0.0000
  18 H           -1.1167     1.7984     0.0253 H            1    LIG   0.0000
  19 H           -0.7255    -0.6659    -0.0273 H            1    LIG   0.0000
  20 H            2.4216    -1.9741    -1.9909 H            1    LIG   0.0000
  21 H            1.2522    -3.0237    -1.5465 H            1    LIG   0.0000
  22 H            4.3713    -4.5796    -2.1626 H            1    LIG   0.0000
  23 H            1.2354    -3.0713     1.3828 H            1    LIG   0.0000
  24 H            2.4269    -2.0617     1.8601 H            1    LIG   0.0000
@<TRIPOS>BOND
   1        1        2 ar
   2        2        3 ar
   3        2        4 1
   4        4        5 1
   5        5        6 1
   6        6        7 2
   7        7        8 1
   8        8        4 2
   9        8        9 1
  10        9       10 1
  11       10       11 1
  12       11       12 2
  13       12       13 1
  14       13       14 1
  15       14       15 2
  16       15       11 1
  17       15       16 1
  18       16        9 1
  19       13       17 1
  20        6       18 1
  21        7       19 1
  22       10       20 1
  23       10       21 1
  24       12       22 1
  25       16       23 1
  26       16       24 1

