@<TRIPOS>MOLECULE
*****
 24 26 0 0 0
SMALL
USER_CHARGES

@<TRIPOS>ATOM
      1 O1          4.3009    1.3414    0.6514 O.2     1  LIG1        0.0000
      2 N2          3.6505    0.5802   -0.0281 N.pl3   1  LIG1        1.0000
      3 O3          4.2131   -0.2478   -0.7254 O.2     1  LIG1       -1.0000
      4 C4          2.2545    0.6496   -0.0140 C.2     1  LIG1        0.0000
      5 S5          1.3152    2.0710    0.0168 S.3     1  LIG1        0.0000
      6 C6         -0.2271    1.3419    0.0112 C.2     1  LIG1        0.0000
      7 C7          0.0174    0.0034   -0.0166 C.2     1  LIG1        0.0000
      8 C8          1.3792   -0.3951   -0.0298 C.2     1  LIG1        0.0000
      9 N9          1.7956   -1.7288   -0.0601 N.pl3   1  LIG1        0.0000
     10 C10         1.0912   -2.8535   -0.6717 C.3     1  LIG1        0.0000
     11 C11         1.5052   -4.0664    0.1444 C.2     1  LIG1        0.0000
     12 C12         1.2018   -5.3624    0.4417 C.2     1  LIG1        0.0000
     13 N13         2.1414   -5.7931    1.3258 N.pl3   1  LIG1        0.0000
     14 N14         2.9578   -4.7884    1.5404 N.2     1  LIG1        0.0000
     15 C15         2.6511   -3.7102    0.8409 C.2     1  LIG1        0.0000
     16 C16         3.0290   -2.2834    0.5049 C.3     1  LIG1        0.0000
     17 H           2.1991   -6.7036    1.7350 H       1  LIG1        0.0000
     18 H          -1.1167    1.7984    0.0253 H       1  LIG1        0.0000
     19 H          -0.7255   -0.6659   -0.0273 H       1  LIG1        0.0000
     20 H           1.3654   -2.9624   -1.6272 H       1  LIG1        0.0000
     21 H           0.1018   -2.7175   -0.6222 H       1  LIG1        0.0000
     22 H           0.4360   -5.8937    0.0794 H       1  LIG1        0.0000
     23 H           3.3029   -1.7830    1.3262 H       1  LIG1        0.0000
     24 H           3.7718   -2.2581   -0.1641 H       1  LIG1        0.0000
@<TRIPOS>BOND
     1     1     2   ar
     2     2     3   ar
     3     2     4    1
     4     4     5    1
     5     5     6    1
     6     6     7    2
     7     7     8    1
     8     8     4    2
     9     8     9    1
    10     9    10    1
    11    10    11    1
    12    11    12    2
    13    12    13    1
    14    13    14    1
    15    14    15    2
    16    15    11    1
    17    15    16    1
    18    16     9    1
    19    13    17    1
    20     6    18    1
    21     7    19    1
    22    10    20    1
    23    10    21    1
    24    12    22    1
    25    16    23    1
    26    16    24    1
