@<TRIPOS>MOLECULE
*****
 24 26 0 0 0
SMALL
USER_CHARGES

@<TRIPOS>ATOM
      1 O1          4.3068    1.5967   -0.0184 O.2     1  LIG1        0.0000
      2 N2          3.6505    0.5802   -0.0281 N.pl3   1  LIG1        1.0000
      3 O3          4.2071   -0.5051   -0.0501 O.2     1  LIG1       -1.0000
      4 C4          2.2545    0.6496   -0.0140 C.2     1  LIG1        0.0000
      5 S5          1.3152    2.0710    0.0168 S.3     1  LIG1        0.0000
      6 C6         -0.2271    1.3419    0.0112 C.2     1  LIG1        0.0000
      7 C7          0.0174    0.0034   -0.0166 C.2     1  LIG1        0.0000
      8 C8          1.3792   -0.3951   -0.0298 C.2     1  LIG1        0.0000
      9 N9          1.7972   -1.7342   -0.0602 N.pl3   1  LIG1        0.0000
     10 C10         1.4876   -2.7282   -1.0951 C.3     1  LIG1        0.0000
     11 C11         2.6210   -3.7341   -1.0299 C.2     1  LIG1        0.0000
     12 C12         3.2421   -4.7559   -1.6811 C.2     1  LIG1        0.0000
     13 N13         4.2550   -5.1815   -0.8750 N.pl3   1  LIG1        0.0000
     14 N14         4.2492   -4.4399    0.2093 N.2     1  LIG1        0.0000
     15 C15         3.2886   -3.5520    0.1712 C.2     1  LIG1        0.0000
     16 C16         2.6260   -2.4239    0.9346 C.3     1  LIG1        0.0000
     17 H           4.8908   -5.9273   -1.0739 H       1  LIG1        0.0000
     18 H          -1.1167    1.7984    0.0253 H       1  LIG1        0.0000
     19 H          -0.7255   -0.6659   -0.0273 H       1  LIG1        0.0000
     20 H           1.4527   -2.2969   -1.9967 H       1  LIG1        0.0000
     21 H           0.6125   -3.1727   -0.9041 H       1  LIG1        0.0000
     22 H           3.0011   -5.1237   -2.5792 H       1  LIG1        0.0000
     23 H           2.0598   -2.7849    1.6755 H       1  LIG1        0.0000
     24 H           3.3130   -1.8030    1.3122 H       1  LIG1        0.0000
@<TRIPOS>BOND
     1     1     2   ar
     2     2     3   ar
     3     2     4    1
     4     4     5    1
     5     5     6    1
     6     6     7    2
     7     7     8    1
     8     8     4    2
     9     8     9    1
    10     9    10    1
    11    10    11    1
    12    11    12    2
    13    12    13    1
    14    13    14    1
    15    14    15    2
    16    15    11    1
    17    15    16    1
    18    16     9    1
    19    13    17    1
    20     6    18    1
    21     7    19    1
    22    10    20    1
    23    10    21    1
    24    12    22    1
    25    16    23    1
    26    16    24    1
