@<TRIPOS>MOLECULE
*****
 24 26 0 0 0
SMALL
USER_CHARGES

@<TRIPOS>ATOM
      1 O1          4.3068    1.5967   -0.0184 O.2     1  LIG1        0.0000
      2 N2          3.6505    0.5802   -0.0281 N.pl3   1  LIG1        1.0000
      3 O3          4.2071   -0.5051   -0.0501 O.2     1  LIG1       -1.0000
      4 C4          2.2545    0.6496   -0.0140 C.2     1  LIG1        0.0000
      5 S5          1.3152    2.0710    0.0168 S.3     1  LIG1        0.0000
      6 C6         -0.2271    1.3419    0.0112 C.2     1  LIG1        0.0000
      7 C7          0.0174    0.0034   -0.0166 C.2     1  LIG1        0.0000
      8 C8          1.3792   -0.3951   -0.0298 C.2     1  LIG1        0.0000
      9 N9          1.7956   -1.7288   -0.0601 N.pl3   1  LIG1        0.0000
     10 C10         2.6133   -2.4148    0.9378 C.3     1  LIG1        0.0000
     11 C11         3.3595   -3.4879    0.1632 C.2     1  LIG1        0.0000
     12 C12         4.4120   -4.3547    0.1975 C.2     1  LIG1        0.0000
     13 N13         4.3983   -5.0362   -0.9794 N.pl3   1  LIG1        0.0000
     14 N14         3.3824   -4.5829   -1.6755 N.2     1  LIG1        0.0000
     15 C15         2.6881   -3.6560   -1.0393 C.2     1  LIG1        0.0000
     16 C16         1.4947   -2.7262   -1.0910 C.3     1  LIG1        0.0000
     17 H           5.0412   -5.7485   -1.2612 H       1  LIG1        0.0000
     18 H          -1.1167    1.7984    0.0253 H       1  LIG1        0.0000
     19 H          -0.7255   -0.6659   -0.0273 H       1  LIG1        0.0000
     20 H           2.0358   -2.8272    1.6423 H       1  LIG1        0.0000
     21 H           3.2557   -1.7780    1.3640 H       1  LIG1        0.0000
     22 H           5.0675   -4.4675    0.9443 H       1  LIG1        0.0000
     23 H           1.4139   -2.2974   -1.9908 H       1  LIG1        0.0000
     24 H           0.6495   -3.2167   -0.8784 H       1  LIG1        0.0000
@<TRIPOS>BOND
     1     1     2   ar
     2     2     3   ar
     3     2     4    1
     4     4     5    1
     5     5     6    1
     6     6     7    2
     7     7     8    1
     8     8     4    2
     9     8     9    1
    10     9    10    1
    11    10    11    1
    12    11    12    2
    13    12    13    1
    14    13    14    1
    15    14    15    2
    16    15    11    1
    17    15    16    1
    18    16     9    1
    19    13    17    1
    20     6    18    1
    21     7    19    1
    22    10    20    1
    23    10    21    1
    24    12    22    1
    25    16    23    1
    26    16    24    1
