@<TRIPOS>MOLECULE
*****
 24 26 0 0 0
SMALL
USER_CHARGES

@<TRIPOS>ATOM
      1 O1          4.3068    1.5967   -0.0184 O.2     1  LIG1        0.0000
      2 N2          3.6505    0.5802   -0.0281 N.pl3   1  LIG1        1.0000
      3 O3          4.2071   -0.5051   -0.0501 O.2     1  LIG1       -1.0000
      4 C4          2.2545    0.6496   -0.0140 C.2     1  LIG1        0.0000
      5 S5          1.3152    2.0710    0.0168 S.3     1  LIG1        0.0000
      6 C6         -0.2271    1.3419    0.0112 C.2     1  LIG1        0.0000
      7 C7          0.0174    0.0034   -0.0166 C.2     1  LIG1        0.0000
      8 C8          1.3792   -0.3951   -0.0298 C.2     1  LIG1        0.0000
      9 N9          1.7956   -1.7288   -0.0601 N.pl3   1  LIG1        0.0000
     10 C10         2.6161   -2.3681   -1.0863 C.3     1  LIG1        0.0000
     11 C11         2.1874   -3.8257   -1.0799 C.2     1  LIG1        0.0000
     12 C12         2.2153   -4.9957   -1.7803 C.2     1  LIG1        0.0000
     13 N13         1.5624   -5.9205   -1.0264 N.pl3   1  LIG1        0.0000
     14 N14         1.1647   -5.3148    0.0676 N.2     1  LIG1        0.0000
     15 C15         1.5263   -4.0450    0.1200 C.2     1  LIG1        0.0000
     16 C16         1.5079   -2.7679    0.9327 C.3     1  LIG1        0.0000
     17 H           1.4134   -6.8810   -1.2616 H       1  LIG1        0.0000
     18 H          -1.1167    1.7984    0.0253 H       1  LIG1        0.0000
     19 H          -0.7255   -0.6659   -0.0273 H       1  LIG1        0.0000
     20 H           3.5870   -2.2861   -0.8616 H       1  LIG1        0.0000
     21 H           2.4450   -1.9552   -1.9809 H       1  LIG1        0.0000
     22 H           2.6349   -5.1448   -2.6756 H       1  LIG1        0.0000
     23 H           0.6117   -2.6237    1.3521 H       1  LIG1        0.0000
     24 H           2.2100   -2.7867    1.6446 H       1  LIG1        0.0000
@<TRIPOS>BOND
     1     1     2   ar
     2     2     3   ar
     3     2     4    1
     4     4     5    1
     5     5     6    1
     6     6     7    2
     7     7     8    1
     8     8     4    2
     9     8     9    1
    10     9    10    1
    11    10    11    1
    12    11    12    2
    13    12    13    1
    14    13    14    1
    15    14    15    2
    16    15    11    1
    17    15    16    1
    18    16     9    1
    19    13    17    1
    20     6    18    1
    21     7    19    1
    22    10    20    1
    23    10    21    1
    24    12    22    1
    25    16    23    1
    26    16    24    1
