@<TRIPOS>MOLECULE

  29   29
SMALL
USER_CHARGES
@<TRIPOS>ATOM
   1 F1           4.7265     4.3145    -0.2539 F            1    LIG   0.0000
   2 C2           4.6233     3.8834     1.0000 C.3          1    LIG   0.0000
   3 F3           3.6705     4.5675     1.6270 F            1    LIG   0.0000
   4 F4           5.7826     4.0616     1.6270 F            1    LIG   0.0000
   5 C5           4.2692     2.4052     1.0000 C.3          1    LIG   0.0000
   6 N6           2.8072     2.2516     1.0000 N.pl3        1    LIG   0.0000
   7 N7           2.2500     1.0000     1.0000 N.2          1    LIG   0.0000
   8 C8           1.0000     1.0000     1.0000 C.2          1    LIG   0.0000
   9 C9           0.2749     2.2560     1.0000 C.ar         1    LIG   0.0000
  10 C10          0.4721     3.1363     2.0580 C.ar         1    LIG   0.0000
  11 C11         -0.2072     4.3498     2.0894 C.ar         1    LIG   0.0000
  12 C12         -1.0848     4.6829     1.0620 C.ar         1    LIG   0.0000
  13 C13         -1.2823     3.8026     0.0031 C.ar         1    LIG   0.0000
  14 C14         -0.6029     2.5890    -0.0283 C.ar         1    LIG   0.0000
  15 C15         -0.8425     1.6510    -1.2006 C.3          1    LIG   0.0000
  16 C16         -1.9971     0.7176    -0.8749 C.3          1    LIG   0.0000
  17 F17         -3.1324     1.2420    -1.3274 F            1    LIG   0.0000
  18 F18         -1.7912    -0.4615    -1.4549 F            1    LIG   0.0000
  19 F19         -2.0779     0.5553     0.4427 F            1    LIG   0.0000
  20 H            4.6500     1.9712     0.1835 H            1    LIG   0.0000
  21 H            4.6500     1.9712     1.8165 H            1    LIG   0.0000
  22 H            2.2194     3.0606     1.0000 H            1    LIG   0.0000
  23 H            0.5000     0.1340     1.0000 H            1    LIG   0.0000
  24 H            1.1024     2.8970     2.7965 H            1    LIG   0.0000
  25 H           -0.0648     4.9829     2.8503 H            1    LIG   0.0000
  26 H           -1.5736     5.5550     1.0850 H            1    LIG   0.0000
  27 H           -1.9126     4.0421    -0.7354 H            1    LIG   0.0000
  28 H           -0.0170     1.1131    -1.3712 H            1    LIG   0.0000
  29 H           -1.0661     2.1860    -2.0153 H            1    LIG   0.0000
@<TRIPOS>BOND
   1        1        2 1
   2        2        3 1
   3        2        4 1
   4        2        5 1
   5        5        6 1
   6        6        7 1
   7        7        8 2
   8        8        9 1
   9        9       10 ar
  10       10       11 ar
  11       11       12 ar
  12       12       13 ar
  13       13       14 ar
  14       14        9 ar
  15       14       15 1
  16       15       16 1
  17       16       17 1
  18       16       18 1
  19       16       19 1
  20        5       20 1
  21        5       21 1
  22        6       22 1
  23        8       23 1
  24       10       24 1
  25       11       25 1
  26       12       26 1
  27       13       27 1
  28       15       28 1
  29       15       29 1

@<TRIPOS>MOLECULE

  29   29
SMALL
USER_CHARGES
@<TRIPOS>ATOM
   1 F1           4.7265     4.3145    -0.2539 F            1    LIG   0.0000
   2 C2           4.6233     3.8834     1.0000 C.3          1    LIG   0.0000
   3 F3           3.6705     4.5675     1.6270 F            1    LIG   0.0000
   4 F4           5.7826     4.0616     1.6270 F            1    LIG   0.0000
   5 C5           4.2692     2.4052     1.0000 C.3          1    LIG   0.0000
   6 N6           2.8072     2.2516     1.0000 N.pl3        1    LIG   0.0000
   7 N7           2.2500     1.0000     1.0000 N.2          1    LIG   0.0000
   8 C8           1.0000     1.0000     1.0000 C.2          1    LIG   0.0000
   9 C9           0.2749     2.2560     1.0000 C.ar         1    LIG   0.0000
  10 C10          0.4721     3.1363     2.0580 C.ar         1    LIG   0.0000
  11 C11         -0.2072     4.3498     2.0894 C.ar         1    LIG   0.0000
  12 C12         -1.0848     4.6829     1.0620 C.ar         1    LIG   0.0000
  13 C13         -1.2823     3.8026     0.0031 C.ar         1    LIG   0.0000
  14 C14         -0.6029     2.5890    -0.0283 C.ar         1    LIG   0.0000
  15 C15         -0.8425     1.6510    -1.2006 C.3          1    LIG   0.0000
  16 C16          0.1524     1.9592    -2.3077 C.3          1    LIG   0.0000
  17 F17          1.2234     1.1827    -2.1701 F            1    LIG   0.0000
  18 F18         -0.4135     1.7288    -3.4890 F            1    LIG   0.0000
  19 F19          0.5178     3.2358    -2.2326 F            1    LIG   0.0000
  20 H            4.6500     1.9712     0.1835 H            1    LIG   0.0000
  21 H            4.6500     1.9712     1.8165 H            1    LIG   0.0000
  22 H            2.2194     3.0606     1.0000 H            1    LIG   0.0000
  23 H            0.5000     0.1340     1.0000 H            1    LIG   0.0000
  24 H            1.1024     2.8970     2.7965 H            1    LIG   0.0000
  25 H           -0.0648     4.9829     2.8503 H            1    LIG   0.0000
  26 H           -1.5736     5.5550     1.0850 H            1    LIG   0.0000
  27 H           -1.9126     4.0421    -0.7354 H            1    LIG   0.0000
  28 H           -1.7731     1.7776    -1.5440 H            1    LIG   0.0000
  29 H           -0.7240     0.7046    -0.8999 H            1    LIG   0.0000
@<TRIPOS>BOND
   1        1        2 1
   2        2        3 1
   3        2        4 1
   4        2        5 1
   5        5        6 1
   6        6        7 1
   7        7        8 2
   8        8        9 1
   9        9       10 ar
  10       10       11 ar
  11       11       12 ar
  12       12       13 ar
  13       13       14 ar
  14       14        9 ar
  15       14       15 1
  16       15       16 1
  17       16       17 1
  18       16       18 1
  19       16       19 1
  20        5       20 1
  21        5       21 1
  22        6       22 1
  23        8       23 1
  24       10       24 1
  25       11       25 1
  26       12       26 1
  27       13       27 1
  28       15       28 1
  29       15       29 1

@<TRIPOS>MOLECULE

  29   29
SMALL
USER_CHARGES
@<TRIPOS>ATOM
   1 F1           4.7265     4.3145    -0.2539 F            1    LIG   0.0000
   2 C2           4.6233     3.8834     1.0000 C.3          1    LIG   0.0000
   3 F3           3.6705     4.5675     1.6270 F            1    LIG   0.0000
   4 F4           5.7826     4.0616     1.6270 F            1    LIG   0.0000
   5 C5           4.2692     2.4052     1.0000 C.3          1    LIG   0.0000
   6 N6           2.8072     2.2516     1.0000 N.pl3        1    LIG   0.0000
   7 N7           2.2500     1.0000     1.0000 N.2          1    LIG   0.0000
   8 C8           1.0000     1.0000     1.0000 C.2          1    LIG   0.0000
   9 C9           0.2749     2.2560     1.0000 C.ar         1    LIG   0.0000
  10 C10          0.4719     3.1362    -0.0581 C.ar         1    LIG   0.0000
  11 C11         -0.2078     4.3494    -0.0898 C.ar         1    LIG   0.0000
  12 C12         -1.0849     4.6828     0.9379 C.ar         1    LIG   0.0000
  13 C13         -1.2827     3.8024     1.9966 C.ar         1    LIG   0.0000
  14 C14         -0.6029     2.5890     2.0283 C.ar         1    LIG   0.0000
  15 C15         -0.8430     1.6507     3.2003 C.3          1    LIG   0.0000
  16 C16          0.1519     1.9583     4.3076 C.3          1    LIG   0.0000
  17 F17         -0.3862     2.8276     5.1582 F            1    LIG   0.0000
  18 F18          0.4570     0.8365     4.9537 F            1    LIG   0.0000
  19 F19          1.2556     2.4799     3.7796 F            1    LIG   0.0000
  20 H            4.6500     1.9712     0.1835 H            1    LIG   0.0000
  21 H            4.6500     1.9712     1.8165 H            1    LIG   0.0000
  22 H            2.2194     3.0606     1.0000 H            1    LIG   0.0000
  23 H            0.5000     0.1340     1.0000 H            1    LIG   0.0000
  24 H            1.1025     2.8970    -0.7965 H            1    LIG   0.0000
  25 H           -0.0662     4.9821    -0.8512 H            1    LIG   0.0000
  26 H           -1.5731     5.5553     0.9153 H            1    LIG   0.0000
  27 H           -1.9134     4.0416     2.7349 H            1    LIG   0.0000
  28 H           -0.7247     0.7044     2.8994 H            1    LIG   0.0000
  29 H           -1.7736     1.7775     3.5437 H            1    LIG   0.0000
@<TRIPOS>BOND
   1        1        2 1
   2        2        3 1
   3        2        4 1
   4        2        5 1
   5        5        6 1
   6        6        7 1
   7        7        8 2
   8        8        9 1
   9        9       10 ar
  10       10       11 ar
  11       11       12 ar
  12       12       13 ar
  13       13       14 ar
  14       14        9 ar
  15       14       15 1
  16       15       16 1
  17       16       17 1
  18       16       18 1
  19       16       19 1
  20        5       20 1
  21        5       21 1
  22        6       22 1
  23        8       23 1
  24       10       24 1
  25       11       25 1
  26       12       26 1
  27       13       27 1
  28       15       28 1
  29       15       29 1

@<TRIPOS>MOLECULE

  29   29
SMALL
USER_CHARGES
@<TRIPOS>ATOM
   1 F1           4.7265     4.3145    -0.2539 F            1    LIG   0.0000
   2 C2           4.6233     3.8834     1.0000 C.3          1    LIG   0.0000
   3 F3           3.6705     4.5675     1.6270 F            1    LIG   0.0000
   4 F4           5.7826     4.0616     1.6270 F            1    LIG   0.0000
   5 C5           4.2692     2.4052     1.0000 C.3          1    LIG   0.0000
   6 N6           2.8072     2.2516     1.0000 N.pl3        1    LIG   0.0000
   7 N7           2.2500     1.0000     1.0000 N.2          1    LIG   0.0000
   8 C8           1.0000     1.0000     1.0000 C.2          1    LIG   0.0000
   9 C9           0.2749     2.2560     1.0000 C.ar         1    LIG   0.0000
  10 C10          0.4719     3.1362    -0.0581 C.ar         1    LIG   0.0000
  11 C11         -0.2078     4.3494    -0.0898 C.ar         1    LIG   0.0000
  12 C12         -1.0849     4.6828     0.9379 C.ar         1    LIG   0.0000
  13 C13         -1.2827     3.8024     1.9966 C.ar         1    LIG   0.0000
  14 C14         -0.6029     2.5890     2.0283 C.ar         1    LIG   0.0000
  15 C15         -0.8430     1.6507     3.2003 C.3          1    LIG   0.0000
  16 C16         -1.9978     0.7178     2.8742 C.3          1    LIG   0.0000
  17 F17         -1.5241    -0.4036     2.3384 F            1    LIG   0.0000
  18 F18         -2.6635     0.4298     3.9890 F            1    LIG   0.0000
  19 F19         -2.8163     1.3108     2.0098 F            1    LIG   0.0000
  20 H            4.6500     1.9712     0.1835 H            1    LIG   0.0000
  21 H            4.6500     1.9712     1.8165 H            1    LIG   0.0000
  22 H            2.2194     3.0606     1.0000 H            1    LIG   0.0000
  23 H            0.5000     0.1340     1.0000 H            1    LIG   0.0000
  24 H            1.1025     2.8970    -0.7965 H            1    LIG   0.0000
  25 H           -0.0662     4.9821    -0.8512 H            1    LIG   0.0000
  26 H           -1.5731     5.5553     0.9153 H            1    LIG   0.0000
  27 H           -1.9134     4.0416     2.7349 H            1    LIG   0.0000
  28 H           -1.0664     2.1856     4.0152 H            1    LIG   0.0000
  29 H           -0.0176     1.1125     3.3709 H            1    LIG   0.0000
@<TRIPOS>BOND
   1        1        2 1
   2        2        3 1
   3        2        4 1
   4        2        5 1
   5        5        6 1
   6        6        7 1
   7        7        8 2
   8        8        9 1
   9        9       10 ar
  10       10       11 ar
  11       11       12 ar
  12       12       13 ar
  13       13       14 ar
  14       14        9 ar
  15       14       15 1
  16       15       16 1
  17       16       17 1
  18       16       18 1
  19       16       19 1
  20        5       20 1
  21        5       21 1
  22        6       22 1
  23        8       23 1
  24       10       24 1
  25       11       25 1
  26       12       26 1
  27       13       27 1
  28       15       28 1
  29       15       29 1

@<TRIPOS>MOLECULE

  29   29
SMALL
USER_CHARGES
@<TRIPOS>ATOM
   1 F1           4.7098     4.4741     1.9761 F            1    LIG   0.0000
   2 C2           4.6982     3.1708     2.2411 C.3          1    LIG   0.0000
   3 F3           3.8429     2.9271     3.2300 F            1    LIG   0.0000
   4 F4           5.9172     2.7811     2.6031 F            1    LIG   0.0000
   5 C5           4.2692     2.4052     1.0000 C.3          1    LIG   0.0000
   6 N6           2.8072     2.2516     1.0000 N.pl3        1    LIG   0.0000
   7 N7           2.2500     1.0000     1.0000 N.2          1    LIG   0.0000
   8 C8           1.0000     1.0000     1.0000 C.2          1    LIG   0.0000
   9 C9           0.2749     2.2560     1.0000 C.ar         1    LIG   0.0000
  10 C10          0.4721     3.1363     2.0580 C.ar         1    LIG   0.0000
  11 C11         -0.2072     4.3498     2.0894 C.ar         1    LIG   0.0000
  12 C12         -1.0848     4.6829     1.0620 C.ar         1    LIG   0.0000
  13 C13         -1.2823     3.8026     0.0031 C.ar         1    LIG   0.0000
  14 C14         -0.6029     2.5890    -0.0283 C.ar         1    LIG   0.0000
  15 C15         -0.8425     1.6510    -1.2006 C.3          1    LIG   0.0000
  16 C16         -1.9971     0.7176    -0.8749 C.3          1    LIG   0.0000
  17 F17         -3.1324     1.2420    -1.3274 F            1    LIG   0.0000
  18 F18         -1.7912    -0.4615    -1.4549 F            1    LIG   0.0000
  19 F19         -2.0779     0.5553     0.4427 F            1    LIG   0.0000
  20 H            4.5514     2.9089     0.1835 H            1    LIG   0.0000
  21 H            4.6992     1.5024     1.0000 H            1    LIG   0.0000
  22 H            2.2194     3.0606     1.0000 H            1    LIG   0.0000
  23 H            0.5000     0.1340     1.0000 H            1    LIG   0.0000
  24 H            1.1024     2.8970     2.7965 H            1    LIG   0.0000
  25 H           -0.0648     4.9829     2.8503 H            1    LIG   0.0000
  26 H           -1.5736     5.5550     1.0850 H            1    LIG   0.0000
  27 H           -1.9126     4.0421    -0.7354 H            1    LIG   0.0000
  28 H           -0.0170     1.1131    -1.3712 H            1    LIG   0.0000
  29 H           -1.0661     2.1860    -2.0153 H            1    LIG   0.0000
@<TRIPOS>BOND
   1        1        2 1
   2        2        3 1
   3        2        4 1
   4        2        5 1
   5        5        6 1
   6        6        7 1
   7        7        8 2
   8        8        9 1
   9        9       10 ar
  10       10       11 ar
  11       11       12 ar
  12       12       13 ar
  13       13       14 ar
  14       14        9 ar
  15       14       15 1
  16       15       16 1
  17       16       17 1
  18       16       18 1
  19       16       19 1
  20        5       20 1
  21        5       21 1
  22        6       22 1
  23        8       23 1
  24       10       24 1
  25       11       25 1
  26       12       26 1
  27       13       27 1
  28       15       28 1
  29       15       29 1

@<TRIPOS>MOLECULE

  29   29
SMALL
USER_CHARGES
@<TRIPOS>ATOM
   1 F1           4.7098     4.4741     1.9761 F            1    LIG   0.0000
   2 C2           4.6982     3.1708     2.2411 C.3          1    LIG   0.0000
   3 F3           3.8429     2.9271     3.2300 F            1    LIG   0.0000
   4 F4           5.9172     2.7811     2.6031 F            1    LIG   0.0000
   5 C5           4.2692     2.4052     1.0000 C.3          1    LIG   0.0000
   6 N6           2.8072     2.2516     1.0000 N.pl3        1    LIG   0.0000
   7 N7           2.2500     1.0000     1.0000 N.2          1    LIG   0.0000
   8 C8           1.0000     1.0000     1.0000 C.2          1    LIG   0.0000
   9 C9           0.2749     2.2560     1.0000 C.ar         1    LIG   0.0000
  10 C10          0.4721     3.1363     2.0580 C.ar         1    LIG   0.0000
  11 C11         -0.2072     4.3498     2.0894 C.ar         1    LIG   0.0000
  12 C12         -1.0848     4.6829     1.0620 C.ar         1    LIG   0.0000
  13 C13         -1.2823     3.8026     0.0031 C.ar         1    LIG   0.0000
  14 C14         -0.6029     2.5890    -0.0283 C.ar         1    LIG   0.0000
  15 C15         -0.8425     1.6510    -1.2006 C.3          1    LIG   0.0000
  16 C16          0.1524     1.9592    -2.3077 C.3          1    LIG   0.0000
  17 F17          1.2234     1.1827    -2.1701 F            1    LIG   0.0000
  18 F18         -0.4135     1.7288    -3.4890 F            1    LIG   0.0000
  19 F19          0.5178     3.2358    -2.2326 F            1    LIG   0.0000
  20 H            4.5514     2.9089     0.1835 H            1    LIG   0.0000
  21 H            4.6992     1.5024     1.0000 H            1    LIG   0.0000
  22 H            2.2194     3.0606     1.0000 H            1    LIG   0.0000
  23 H            0.5000     0.1340     1.0000 H            1    LIG   0.0000
  24 H            1.1024     2.8970     2.7965 H            1    LIG   0.0000
  25 H           -0.0648     4.9829     2.8503 H            1    LIG   0.0000
  26 H           -1.5736     5.5550     1.0850 H            1    LIG   0.0000
  27 H           -1.9126     4.0421    -0.7354 H            1    LIG   0.0000
  28 H           -1.7731     1.7776    -1.5440 H            1    LIG   0.0000
  29 H           -0.7240     0.7046    -0.8999 H            1    LIG   0.0000
@<TRIPOS>BOND
   1        1        2 1
   2        2        3 1
   3        2        4 1
   4        2        5 1
   5        5        6 1
   6        6        7 1
   7        7        8 2
   8        8        9 1
   9        9       10 ar
  10       10       11 ar
  11       11       12 ar
  12       12       13 ar
  13       13       14 ar
  14       14        9 ar
  15       14       15 1
  16       15       16 1
  17       16       17 1
  18       16       18 1
  19       16       19 1
  20        5       20 1
  21        5       21 1
  22        6       22 1
  23        8       23 1
  24       10       24 1
  25       11       25 1
  26       12       26 1
  27       13       27 1
  28       15       28 1
  29       15       29 1

@<TRIPOS>MOLECULE

  29   29
SMALL
USER_CHARGES
@<TRIPOS>ATOM
   1 F1           4.7098     4.4741     1.9761 F            1    LIG   0.0000
   2 C2           4.6982     3.1708     2.2411 C.3          1    LIG   0.0000
   3 F3           3.8429     2.9271     3.2300 F            1    LIG   0.0000
   4 F4           5.9172     2.7811     2.6031 F            1    LIG   0.0000
   5 C5           4.2692     2.4052     1.0000 C.3          1    LIG   0.0000
   6 N6           2.8072     2.2516     1.0000 N.pl3        1    LIG   0.0000
   7 N7           2.2500     1.0000     1.0000 N.2          1    LIG   0.0000
   8 C8           1.0000     1.0000     1.0000 C.2          1    LIG   0.0000
   9 C9           0.2749     2.2560     1.0000 C.ar         1    LIG   0.0000
  10 C10          0.4719     3.1362    -0.0581 C.ar         1    LIG   0.0000
  11 C11         -0.2078     4.3494    -0.0898 C.ar         1    LIG   0.0000
  12 C12         -1.0849     4.6828     0.9379 C.ar         1    LIG   0.0000
  13 C13         -1.2827     3.8024     1.9966 C.ar         1    LIG   0.0000
  14 C14         -0.6029     2.5890     2.0283 C.ar         1    LIG   0.0000
  15 C15         -0.8430     1.6507     3.2003 C.3          1    LIG   0.0000
  16 C16          0.1519     1.9583     4.3076 C.3          1    LIG   0.0000
  17 F17         -0.3862     2.8276     5.1582 F            1    LIG   0.0000
  18 F18          0.4570     0.8365     4.9537 F            1    LIG   0.0000
  19 F19          1.2556     2.4799     3.7796 F            1    LIG   0.0000
  20 H            4.5514     2.9089     0.1835 H            1    LIG   0.0000
  21 H            4.6992     1.5024     1.0000 H            1    LIG   0.0000
  22 H            2.2194     3.0606     1.0000 H            1    LIG   0.0000
  23 H            0.5000     0.1340     1.0000 H            1    LIG   0.0000
  24 H            1.1025     2.8970    -0.7965 H            1    LIG   0.0000
  25 H           -0.0662     4.9821    -0.8512 H            1    LIG   0.0000
  26 H           -1.5731     5.5553     0.9153 H            1    LIG   0.0000
  27 H           -1.9134     4.0416     2.7349 H            1    LIG   0.0000
  28 H           -0.7247     0.7044     2.8994 H            1    LIG   0.0000
  29 H           -1.7736     1.7775     3.5437 H            1    LIG   0.0000
@<TRIPOS>BOND
   1        1        2 1
   2        2        3 1
   3        2        4 1
   4        2        5 1
   5        5        6 1
   6        6        7 1
   7        7        8 2
   8        8        9 1
   9        9       10 ar
  10       10       11 ar
  11       11       12 ar
  12       12       13 ar
  13       13       14 ar
  14       14        9 ar
  15       14       15 1
  16       15       16 1
  17       16       17 1
  18       16       18 1
  19       16       19 1
  20        5       20 1
  21        5       21 1
  22        6       22 1
  23        8       23 1
  24       10       24 1
  25       11       25 1
  26       12       26 1
  27       13       27 1
  28       15       28 1
  29       15       29 1

@<TRIPOS>MOLECULE

  29   29
SMALL
USER_CHARGES
@<TRIPOS>ATOM
   1 F1           4.7098     4.4741     1.9761 F            1    LIG   0.0000
   2 C2           4.6982     3.1708     2.2411 C.3          1    LIG   0.0000
   3 F3           3.8429     2.9271     3.2300 F            1    LIG   0.0000
   4 F4           5.9172     2.7811     2.6031 F            1    LIG   0.0000
   5 C5           4.2692     2.4052     1.0000 C.3          1    LIG   0.0000
   6 N6           2.8072     2.2516     1.0000 N.pl3        1    LIG   0.0000
   7 N7           2.2500     1.0000     1.0000 N.2          1    LIG   0.0000
   8 C8           1.0000     1.0000     1.0000 C.2          1    LIG   0.0000
   9 C9           0.2749     2.2560     1.0000 C.ar         1    LIG   0.0000
  10 C10          0.4719     3.1362    -0.0581 C.ar         1    LIG   0.0000
  11 C11         -0.2078     4.3494    -0.0898 C.ar         1    LIG   0.0000
  12 C12         -1.0849     4.6828     0.9379 C.ar         1    LIG   0.0000
  13 C13         -1.2827     3.8024     1.9966 C.ar         1    LIG   0.0000
  14 C14         -0.6029     2.5890     2.0283 C.ar         1    LIG   0.0000
  15 C15         -0.8430     1.6507     3.2003 C.3          1    LIG   0.0000
  16 C16         -1.9978     0.7178     2.8742 C.3          1    LIG   0.0000
  17 F17         -1.5241    -0.4036     2.3384 F            1    LIG   0.0000
  18 F18         -2.6635     0.4298     3.9890 F            1    LIG   0.0000
  19 F19         -2.8163     1.3108     2.0098 F            1    LIG   0.0000
  20 H            4.5514     2.9089     0.1835 H            1    LIG   0.0000
  21 H            4.6992     1.5024     1.0000 H            1    LIG   0.0000
  22 H            2.2194     3.0606     1.0000 H            1    LIG   0.0000
  23 H            0.5000     0.1340     1.0000 H            1    LIG   0.0000
  24 H            1.1025     2.8970    -0.7965 H            1    LIG   0.0000
  25 H           -0.0662     4.9821    -0.8512 H            1    LIG   0.0000
  26 H           -1.5731     5.5553     0.9153 H            1    LIG   0.0000
  27 H           -1.9134     4.0416     2.7349 H            1    LIG   0.0000
  28 H           -1.0664     2.1856     4.0152 H            1    LIG   0.0000
  29 H           -0.0176     1.1125     3.3709 H            1    LIG   0.0000
@<TRIPOS>BOND
   1        1        2 1
   2        2        3 1
   3        2        4 1
   4        2        5 1
   5        5        6 1
   6        6        7 1
   7        7        8 2
   8        8        9 1
   9        9       10 ar
  10       10       11 ar
  11       11       12 ar
  12       12       13 ar
  13       13       14 ar
  14       14        9 ar
  15       14       15 1
  16       15       16 1
  17       16       17 1
  18       16       18 1
  19       16       19 1
  20        5       20 1
  21        5       21 1
  22        6       22 1
  23        8       23 1
  24       10       24 1
  25       11       25 1
  26       12       26 1
  27       13       27 1
  28       15       28 1
  29       15       29 1

@<TRIPOS>MOLECULE

  29   29
SMALL
USER_CHARGES
@<TRIPOS>ATOM
   1 F1           5.0511     1.2266    -0.8510 F            1    LIG   0.0000
   2 C2           4.7731     2.4582    -0.4331 C.3          1    LIG   0.0000
   3 F3           3.8363     2.9901    -1.2130 F            1    LIG   0.0000
   4 F4           5.8727     3.2042    -0.4891 F            1    LIG   0.0000
   5 C5           4.2692     2.4052     1.0000 C.3          1    LIG   0.0000
   6 N6           2.8072     2.2516     1.0000 N.pl3        1    LIG   0.0000
   7 N7           2.2500     1.0000     1.0000 N.2          1    LIG   0.0000
   8 C8           1.0000     1.0000     1.0000 C.2          1    LIG   0.0000
   9 C9           0.2749     2.2560     1.0000 C.ar         1    LIG   0.0000
  10 C10          0.4721     3.1363     2.0580 C.ar         1    LIG   0.0000
  11 C11         -0.2072     4.3498     2.0894 C.ar         1    LIG   0.0000
  12 C12         -1.0848     4.6829     1.0620 C.ar         1    LIG   0.0000
  13 C13         -1.2823     3.8026     0.0031 C.ar         1    LIG   0.0000
  14 C14         -0.6029     2.5890    -0.0283 C.ar         1    LIG   0.0000
  15 C15         -0.8425     1.6510    -1.2006 C.3          1    LIG   0.0000
  16 C16         -1.9971     0.7176    -0.8749 C.3          1    LIG   0.0000
  17 F17         -3.1324     1.2420    -1.3274 F            1    LIG   0.0000
  18 F18         -1.7912    -0.4615    -1.4549 F            1    LIG   0.0000
  19 F19         -2.0779     0.5553     0.4427 F            1    LIG   0.0000
  20 H            4.6860     1.6280     1.4714 H            1    LIG   0.0000
  21 H            4.5153     3.2521     1.4714 H            1    LIG   0.0000
  22 H            2.2194     3.0606     1.0000 H            1    LIG   0.0000
  23 H            0.5000     0.1340     1.0000 H            1    LIG   0.0000
  24 H            1.1024     2.8970     2.7965 H            1    LIG   0.0000
  25 H           -0.0648     4.9829     2.8503 H            1    LIG   0.0000
  26 H           -1.5736     5.5550     1.0850 H            1    LIG   0.0000
  27 H           -1.9126     4.0421    -0.7354 H            1    LIG   0.0000
  28 H           -0.0170     1.1131    -1.3712 H            1    LIG   0.0000
  29 H           -1.0661     2.1860    -2.0153 H            1    LIG   0.0000
@<TRIPOS>BOND
   1        1        2 1
   2        2        3 1
   3        2        4 1
   4        2        5 1
   5        5        6 1
   6        6        7 1
   7        7        8 2
   8        8        9 1
   9        9       10 ar
  10       10       11 ar
  11       11       12 ar
  12       12       13 ar
  13       13       14 ar
  14       14        9 ar
  15       14       15 1
  16       15       16 1
  17       16       17 1
  18       16       18 1
  19       16       19 1
  20        5       20 1
  21        5       21 1
  22        6       22 1
  23        8       23 1
  24       10       24 1
  25       11       25 1
  26       12       26 1
  27       13       27 1
  28       15       28 1
  29       15       29 1

@<TRIPOS>MOLECULE

  29   29
SMALL
USER_CHARGES
@<TRIPOS>ATOM
   1 F1           5.0511     1.2266    -0.8510 F            1    LIG   0.0000
   2 C2           4.7731     2.4582    -0.4331 C.3          1    LIG   0.0000
   3 F3           3.8363     2.9901    -1.2130 F            1    LIG   0.0000
   4 F4           5.8727     3.2042    -0.4891 F            1    LIG   0.0000
   5 C5           4.2692     2.4052     1.0000 C.3          1    LIG   0.0000
   6 N6           2.8072     2.2516     1.0000 N.pl3        1    LIG   0.0000
   7 N7           2.2500     1.0000     1.0000 N.2          1    LIG   0.0000
   8 C8           1.0000     1.0000     1.0000 C.2          1    LIG   0.0000
   9 C9           0.2749     2.2560     1.0000 C.ar         1    LIG   0.0000
  10 C10          0.4721     3.1363     2.0580 C.ar         1    LIG   0.0000
  11 C11         -0.2072     4.3498     2.0894 C.ar         1    LIG   0.0000
  12 C12         -1.0848     4.6829     1.0620 C.ar         1    LIG   0.0000
  13 C13         -1.2823     3.8026     0.0031 C.ar         1    LIG   0.0000
  14 C14         -0.6029     2.5890    -0.0283 C.ar         1    LIG   0.0000
  15 C15         -0.8425     1.6510    -1.2006 C.3          1    LIG   0.0000
  16 C16          0.1524     1.9592    -2.3077 C.3          1    LIG   0.0000
  17 F17          1.2234     1.1827    -2.1701 F            1    LIG   0.0000
  18 F18         -0.4135     1.7288    -3.4890 F            1    LIG   0.0000
  19 F19          0.5178     3.2358    -2.2326 F            1    LIG   0.0000
  20 H            4.6860     1.6280     1.4714 H            1    LIG   0.0000
  21 H            4.5153     3.2521     1.4714 H            1    LIG   0.0000
  22 H            2.2194     3.0606     1.0000 H            1    LIG   0.0000
  23 H            0.5000     0.1340     1.0000 H            1    LIG   0.0000
  24 H            1.1024     2.8970     2.7965 H            1    LIG   0.0000
  25 H           -0.0648     4.9829     2.8503 H            1    LIG   0.0000
  26 H           -1.5736     5.5550     1.0850 H            1    LIG   0.0000
  27 H           -1.9126     4.0421    -0.7354 H            1    LIG   0.0000
  28 H           -1.7731     1.7776    -1.5440 H            1    LIG   0.0000
  29 H           -0.7240     0.7046    -0.8999 H            1    LIG   0.0000
@<TRIPOS>BOND
   1        1        2 1
   2        2        3 1
   3        2        4 1
   4        2        5 1
   5        5        6 1
   6        6        7 1
   7        7        8 2
   8        8        9 1
   9        9       10 ar
  10       10       11 ar
  11       11       12 ar
  12       12       13 ar
  13       13       14 ar
  14       14        9 ar
  15       14       15 1
  16       15       16 1
  17       16       17 1
  18       16       18 1
  19       16       19 1
  20        5       20 1
  21        5       21 1
  22        6       22 1
  23        8       23 1
  24       10       24 1
  25       11       25 1
  26       12       26 1
  27       13       27 1
  28       15       28 1
  29       15       29 1

@<TRIPOS>MOLECULE

  29   29
SMALL
USER_CHARGES
@<TRIPOS>ATOM
   1 F1           5.0511     1.2266    -0.8510 F            1    LIG   0.0000
   2 C2           4.7731     2.4582    -0.4331 C.3          1    LIG   0.0000
   3 F3           3.8363     2.9901    -1.2130 F            1    LIG   0.0000
   4 F4           5.8727     3.2042    -0.4891 F            1    LIG   0.0000
   5 C5           4.2692     2.4052     1.0000 C.3          1    LIG   0.0000
   6 N6           2.8072     2.2516     1.0000 N.pl3        1    LIG   0.0000
   7 N7           2.2500     1.0000     1.0000 N.2          1    LIG   0.0000
   8 C8           1.0000     1.0000     1.0000 C.2          1    LIG   0.0000
   9 C9           0.2749     2.2560     1.0000 C.ar         1    LIG   0.0000
  10 C10          0.4719     3.1362    -0.0581 C.ar         1    LIG   0.0000
  11 C11         -0.2078     4.3494    -0.0898 C.ar         1    LIG   0.0000
  12 C12         -1.0849     4.6828     0.9379 C.ar         1    LIG   0.0000
  13 C13         -1.2827     3.8024     1.9966 C.ar         1    LIG   0.0000
  14 C14         -0.6029     2.5890     2.0283 C.ar         1    LIG   0.0000
  15 C15         -0.8430     1.6507     3.2003 C.3          1    LIG   0.0000
  16 C16          0.1519     1.9583     4.3076 C.3          1    LIG   0.0000
  17 F17         -0.3862     2.8276     5.1582 F            1    LIG   0.0000
  18 F18          0.4570     0.8365     4.9537 F            1    LIG   0.0000
  19 F19          1.2556     2.4799     3.7796 F            1    LIG   0.0000
  20 H            4.6860     1.6280     1.4714 H            1    LIG   0.0000
  21 H            4.5153     3.2521     1.4714 H            1    LIG   0.0000
  22 H            2.2194     3.0606     1.0000 H            1    LIG   0.0000
  23 H            0.5000     0.1340     1.0000 H            1    LIG   0.0000
  24 H            1.1025     2.8970    -0.7965 H            1    LIG   0.0000
  25 H           -0.0662     4.9821    -0.8512 H            1    LIG   0.0000
  26 H           -1.5731     5.5553     0.9153 H            1    LIG   0.0000
  27 H           -1.9134     4.0416     2.7349 H            1    LIG   0.0000
  28 H           -0.7247     0.7044     2.8994 H            1    LIG   0.0000
  29 H           -1.7736     1.7775     3.5437 H            1    LIG   0.0000
@<TRIPOS>BOND
   1        1        2 1
   2        2        3 1
   3        2        4 1
   4        2        5 1
   5        5        6 1
   6        6        7 1
   7        7        8 2
   8        8        9 1
   9        9       10 ar
  10       10       11 ar
  11       11       12 ar
  12       12       13 ar
  13       13       14 ar
  14       14        9 ar
  15       14       15 1
  16       15       16 1
  17       16       17 1
  18       16       18 1
  19       16       19 1
  20        5       20 1
  21        5       21 1
  22        6       22 1
  23        8       23 1
  24       10       24 1
  25       11       25 1
  26       12       26 1
  27       13       27 1
  28       15       28 1
  29       15       29 1

@<TRIPOS>MOLECULE

  29   29
SMALL
USER_CHARGES
@<TRIPOS>ATOM
   1 F1           5.0511     1.2266    -0.8510 F            1    LIG   0.0000
   2 C2           4.7731     2.4582    -0.4331 C.3          1    LIG   0.0000
   3 F3           3.8363     2.9901    -1.2130 F            1    LIG   0.0000
   4 F4           5.8727     3.2042    -0.4891 F            1    LIG   0.0000
   5 C5           4.2692     2.4052     1.0000 C.3          1    LIG   0.0000
   6 N6           2.8072     2.2516     1.0000 N.pl3        1    LIG   0.0000
   7 N7           2.2500     1.0000     1.0000 N.2          1    LIG   0.0000
   8 C8           1.0000     1.0000     1.0000 C.2          1    LIG   0.0000
   9 C9           0.2749     2.2560     1.0000 C.ar         1    LIG   0.0000
  10 C10          0.4719     3.1362    -0.0581 C.ar         1    LIG   0.0000
  11 C11         -0.2078     4.3494    -0.0898 C.ar         1    LIG   0.0000
  12 C12         -1.0849     4.6828     0.9379 C.ar         1    LIG   0.0000
  13 C13         -1.2827     3.8024     1.9966 C.ar         1    LIG   0.0000
  14 C14         -0.6029     2.5890     2.0283 C.ar         1    LIG   0.0000
  15 C15         -0.8430     1.6507     3.2003 C.3          1    LIG   0.0000
  16 C16         -1.9978     0.7178     2.8742 C.3          1    LIG   0.0000
  17 F17         -1.5241    -0.4036     2.3384 F            1    LIG   0.0000
  18 F18         -2.6635     0.4298     3.9890 F            1    LIG   0.0000
  19 F19         -2.8163     1.3108     2.0098 F            1    LIG   0.0000
  20 H            4.6860     1.6280     1.4714 H            1    LIG   0.0000
  21 H            4.5153     3.2521     1.4714 H            1    LIG   0.0000
  22 H            2.2194     3.0606     1.0000 H            1    LIG   0.0000
  23 H            0.5000     0.1340     1.0000 H            1    LIG   0.0000
  24 H            1.1025     2.8970    -0.7965 H            1    LIG   0.0000
  25 H           -0.0662     4.9821    -0.8512 H            1    LIG   0.0000
  26 H           -1.5731     5.5553     0.9153 H            1    LIG   0.0000
  27 H           -1.9134     4.0416     2.7349 H            1    LIG   0.0000
  28 H           -1.0664     2.1856     4.0152 H            1    LIG   0.0000
  29 H           -0.0176     1.1125     3.3709 H            1    LIG   0.0000
@<TRIPOS>BOND
   1        1        2 1
   2        2        3 1
   3        2        4 1
   4        2        5 1
   5        5        6 1
   6        6        7 1
   7        7        8 2
   8        8        9 1
   9        9       10 ar
  10       10       11 ar
  11       11       12 ar
  12       12       13 ar
  13       13       14 ar
  14       14        9 ar
  15       14       15 1
  16       15       16 1
  17       16       17 1
  18       16       18 1
  19       16       19 1
  20        5       20 1
  21        5       21 1
  22        6       22 1
  23        8       23 1
  24       10       24 1
  25       11       25 1
  26       12       26 1
  27       13       27 1
  28       15       28 1
  29       15       29 1

@<TRIPOS>MOLECULE

  29   29
SMALL
USER_CHARGES
@<TRIPOS>ATOM
   1 F1           4.7890     3.7207     2.8510 F            1    LIG   0.0000
   2 C2           4.7731     2.4582     2.4331 C.3          1    LIG   0.0000
   3 F3           3.9673     1.7431     3.2130 F            1    LIG   0.0000
   4 F4           6.0038     1.9571     2.4891 F            1    LIG   0.0000
   5 C5           4.2692     2.4052     1.0000 C.3          1    LIG   0.0000
   6 N6           2.8072     2.2516     1.0000 N.pl3        1    LIG   0.0000
   7 N7           2.2500     1.0000     1.0000 N.2          1    LIG   0.0000
   8 C8           1.0000     1.0000     1.0000 C.2          1    LIG   0.0000
   9 C9           0.2749     2.2560     1.0000 C.ar         1    LIG   0.0000
  10 C10          0.4721     3.1363     2.0580 C.ar         1    LIG   0.0000
  11 C11         -0.2072     4.3498     2.0894 C.ar         1    LIG   0.0000
  12 C12         -1.0848     4.6829     1.0620 C.ar         1    LIG   0.0000
  13 C13         -1.2823     3.8026     0.0031 C.ar         1    LIG   0.0000
  14 C14         -0.6029     2.5890    -0.0283 C.ar         1    LIG   0.0000
  15 C15         -0.8425     1.6510    -1.2006 C.3          1    LIG   0.0000
  16 C16          0.4927     1.2087    -1.7767 C.3          1    LIG   0.0000
  17 F17          0.8662     0.0675    -1.2048 F            1    LIG   0.0000
  18 F18          0.3715     1.0281    -3.0888 F            1    LIG   0.0000
  19 F19          1.4089     2.1435    -1.5407 F            1    LIG   0.0000
  20 H            4.5153     3.2521     0.5286 H            1    LIG   0.0000
  21 H            4.6860     1.6280     0.5286 H            1    LIG   0.0000
  22 H            2.2194     3.0606     1.0000 H            1    LIG   0.0000
  23 H            0.5000     0.1340     1.0000 H            1    LIG   0.0000
  24 H            1.1024     2.8970     2.7965 H            1    LIG   0.0000
  25 H           -0.0648     4.9829     2.8503 H            1    LIG   0.0000
  26 H           -1.5736     5.5550     1.0850 H            1    LIG   0.0000
  27 H           -1.9126     4.0421    -0.7354 H            1    LIG   0.0000
  28 H           -1.3688     2.1263    -1.9057 H            1    LIG   0.0000
  29 H           -1.3523     0.8496    -0.8876 H            1    LIG   0.0000
@<TRIPOS>BOND
   1        1        2 1
   2        2        3 1
   3        2        4 1
   4        2        5 1
   5        5        6 1
   6        6        7 1
   7        7        8 2
   8        8        9 1
   9        9       10 ar
  10       10       11 ar
  11       11       12 ar
  12       12       13 ar
  13       13       14 ar
  14       14        9 ar
  15       14       15 1
  16       15       16 1
  17       16       17 1
  18       16       18 1
  19       16       19 1
  20        5       20 1
  21        5       21 1
  22        6       22 1
  23        8       23 1
  24       10       24 1
  25       11       25 1
  26       12       26 1
  27       13       27 1
  28       15       28 1
  29       15       29 1

@<TRIPOS>MOLECULE

  29   29
SMALL
USER_CHARGES
@<TRIPOS>ATOM
   1 F1           4.7890     3.7207     2.8510 F            1    LIG   0.0000
   2 C2           4.7731     2.4582     2.4331 C.3          1    LIG   0.0000
   3 F3           3.9673     1.7431     3.2130 F            1    LIG   0.0000
   4 F4           6.0038     1.9571     2.4891 F            1    LIG   0.0000
   5 C5           4.2692     2.4052     1.0000 C.3          1    LIG   0.0000
   6 N6           2.8072     2.2516     1.0000 N.pl3        1    LIG   0.0000
   7 N7           2.2500     1.0000     1.0000 N.2          1    LIG   0.0000
   8 C8           1.0000     1.0000     1.0000 C.2          1    LIG   0.0000
   9 C9           0.2749     2.2560     1.0000 C.ar         1    LIG   0.0000
  10 C10          0.4719     3.1362    -0.0581 C.ar         1    LIG   0.0000
  11 C11         -0.2078     4.3494    -0.0898 C.ar         1    LIG   0.0000
  12 C12         -1.0849     4.6828     0.9379 C.ar         1    LIG   0.0000
  13 C13         -1.2827     3.8024     1.9966 C.ar         1    LIG   0.0000
  14 C14         -0.6029     2.5890     2.0283 C.ar         1    LIG   0.0000
  15 C15         -0.8430     1.6507     3.2003 C.3          1    LIG   0.0000
  16 C16         -0.6912     2.4185     4.5033 C.3          1    LIG   0.0000
  17 F17         -1.8792     2.8746     4.8901 F            1    LIG   0.0000
  18 F18         -0.2002     1.6110     5.4391 F            1    LIG   0.0000
  19 F19          0.1386     3.4418     4.3209 F            1    LIG   0.0000
  20 H            4.5153     3.2521     0.5286 H            1    LIG   0.0000
  21 H            4.6860     1.6280     0.5286 H            1    LIG   0.0000
  22 H            2.2194     3.0606     1.0000 H            1    LIG   0.0000
  23 H            0.5000     0.1340     1.0000 H            1    LIG   0.0000
  24 H            1.1025     2.8970    -0.7965 H            1    LIG   0.0000
  25 H           -0.0662     4.9821    -0.8512 H            1    LIG   0.0000
  26 H           -1.5731     5.5553     0.9153 H            1    LIG   0.0000
  27 H           -1.9134     4.0416     2.7349 H            1    LIG   0.0000
  28 H           -0.1764     0.9057     3.1728 H            1    LIG   0.0000
  29 H           -1.7672     1.2734     3.1414 H            1    LIG   0.0000
@<TRIPOS>BOND
   1        1        2 1
   2        2        3 1
   3        2        4 1
   4        2        5 1
   5        5        6 1
   6        6        7 1
   7        7        8 2
   8        8        9 1
   9        9       10 ar
  10       10       11 ar
  11       11       12 ar
  12       12       13 ar
  13       13       14 ar
  14       14        9 ar
  15       14       15 1
  16       15       16 1
  17       16       17 1
  18       16       18 1
  19       16       19 1
  20        5       20 1
  21        5       21 1
  22        6       22 1
  23        8       23 1
  24       10       24 1
  25       11       25 1
  26       12       26 1
  27       13       27 1
  28       15       28 1
  29       15       29 1

@<TRIPOS>MOLECULE

  29   29
SMALL
USER_CHARGES
@<TRIPOS>ATOM
   1 F1           4.0419     4.6194    -0.5431 F            1    LIG   0.0000
   2 C2           4.5015     3.9376     0.5023 C.3          1    LIG   0.0000
   3 F3           3.9756     4.4316     1.6196 F            1    LIG   0.0000
   4 F4           5.8264     4.0420     0.5520 F            1    LIG   0.0000
   5 C5           4.1134     2.4746     0.3635 C.3          1    LIG   0.0000
   6 N6           2.8072     2.2516     1.0000 N.pl3        1    LIG   0.0000
   7 N7           2.2500     1.0000     1.0000 N.2          1    LIG   0.0000
   8 C8           1.0000     1.0000     1.0000 C.2          1    LIG   0.0000
   9 C9           0.2749     2.2560     1.0000 C.ar         1    LIG   0.0000
  10 C10          0.4719     3.1362    -0.0581 C.ar         1    LIG   0.0000
  11 C11         -0.2078     4.3494    -0.0898 C.ar         1    LIG   0.0000
  12 C12         -1.0849     4.6828     0.9379 C.ar         1    LIG   0.0000
  13 C13         -1.2827     3.8024     1.9966 C.ar         1    LIG   0.0000
  14 C14         -0.6029     2.5890     2.0283 C.ar         1    LIG   0.0000
  15 C15         -0.8430     1.6507     3.2003 C.3          1    LIG   0.0000
  16 C16         -0.6912     2.4185     4.5033 C.3          1    LIG   0.0000
  17 F17         -1.8792     2.8746     4.8901 F            1    LIG   0.0000
  18 F18         -0.2002     1.6110     5.4391 F            1    LIG   0.0000
  19 F19          0.1386     3.4418     4.3209 F            1    LIG   0.0000
  20 H            4.0570     2.2352    -0.6058 H            1    LIG   0.0000
  21 H            4.8029     1.9031     0.8084 H            1    LIG   0.0000
  22 H            2.3254     3.0134     1.4330 H            1    LIG   0.0000
  23 H            0.5000     0.1340     1.0000 H            1    LIG   0.0000
  24 H            1.1025     2.8970    -0.7965 H            1    LIG   0.0000
  25 H           -0.0662     4.9821    -0.8512 H            1    LIG   0.0000
  26 H           -1.5731     5.5553     0.9153 H            1    LIG   0.0000
  27 H           -1.9134     4.0416     2.7349 H            1    LIG   0.0000
  28 H           -0.1764     0.9057     3.1728 H            1    LIG   0.0000
  29 H           -1.7672     1.2734     3.1414 H            1    LIG   0.0000
@<TRIPOS>BOND
   1        1        2 1
   2        2        3 1
   3        2        4 1
   4        2        5 1
   5        5        6 1
   6        6        7 1
   7        7        8 2
   8        8        9 1
   9        9       10 ar
  10       10       11 ar
  11       11       12 ar
  12       12       13 ar
  13       13       14 ar
  14       14        9 ar
  15       14       15 1
  16       15       16 1
  17       16       17 1
  18       16       18 1
  19       16       19 1
  20        5       20 1
  21        5       21 1
  22        6       22 1
  23        8       23 1
  24       10       24 1
  25       11       25 1
  26       12       26 1
  27       13       27 1
  28       15       28 1
  29       15       29 1

