@<TRIPOS>MOLECULE
*****
 29 29 0 0 0
SMALL
USER_CHARGES

@<TRIPOS>ATOM
      1 F1          4.0419    4.6194   -0.5431 F       1  LIG1        0.0000
      2 C2          4.5015    3.9376    0.5023 C.3     1  LIG1        0.0000
      3 F3          3.9756    4.4316    1.6196 F       1  LIG1        0.0000
      4 F4          5.8264    4.0420    0.5520 F       1  LIG1        0.0000
      5 C5          4.1134    2.4746    0.3635 C.3     1  LIG1        0.0000
      6 N6          2.8072    2.2516    1.0000 N.pl3   1  LIG1        0.0000
      7 N7          2.2500    1.0000    1.0000 N.2     1  LIG1        0.0000
      8 C8          1.0000    1.0000    1.0000 C.2     1  LIG1        0.0000
      9 C9          0.2749    2.2560    1.0000 C.ar    1  LIG1        0.0000
     10 C10         0.4719    3.1362   -0.0581 C.ar    1  LIG1        0.0000
     11 C11        -0.2078    4.3494   -0.0898 C.ar    1  LIG1        0.0000
     12 C12        -1.0849    4.6828    0.9379 C.ar    1  LIG1        0.0000
     13 C13        -1.2827    3.8024    1.9966 C.ar    1  LIG1        0.0000
     14 C14        -0.6029    2.5890    2.0283 C.ar    1  LIG1        0.0000
     15 C15        -0.8430    1.6507    3.2003 C.3     1  LIG1        0.0000
     16 C16        -0.6912    2.4185    4.5033 C.3     1  LIG1        0.0000
     17 F17        -1.8792    2.8746    4.8901 F       1  LIG1        0.0000
     18 F18        -0.2002    1.6110    5.4391 F       1  LIG1        0.0000
     19 F19         0.1386    3.4418    4.3209 F       1  LIG1        0.0000
     20 H           4.0570    2.2352   -0.6058 H       1  LIG1        0.0000
     21 H           4.8029    1.9031    0.8084 H       1  LIG1        0.0000
     22 H           2.3254    3.0134    1.4330 H       1  LIG1        0.0000
     23 H           0.5000    0.1340    1.0000 H       1  LIG1        0.0000
     24 H           1.1025    2.8970   -0.7965 H       1  LIG1        0.0000
     25 H          -0.0662    4.9821   -0.8512 H       1  LIG1        0.0000
     26 H          -1.5731    5.5553    0.9153 H       1  LIG1        0.0000
     27 H          -1.9134    4.0416    2.7349 H       1  LIG1        0.0000
     28 H          -0.1764    0.9057    3.1728 H       1  LIG1        0.0000
     29 H          -1.7672    1.2734    3.1414 H       1  LIG1        0.0000
@<TRIPOS>BOND
     1     1     2    1
     2     2     3    1
     3     2     4    1
     4     2     5    1
     5     5     6    1
     6     6     7    1
     7     7     8    2
     8     8     9    1
     9     9    10   ar
    10    10    11   ar
    11    11    12   ar
    12    12    13   ar
    13    13    14   ar
    14    14     9   ar
    15    14    15    1
    16    15    16    1
    17    16    17    1
    18    16    18    1
    19    16    19    1
    20     5    20    1
    21     5    21    1
    22     6    22    1
    23     8    23    1
    24    10    24    1
    25    11    25    1
    26    12    26    1
    27    13    27    1
    28    15    28    1
    29    15    29    1
