@<TRIPOS>MOLECULE
*****
 29 29 0 0 0
SMALL
USER_CHARGES

@<TRIPOS>ATOM
      1 F1          4.7098    4.4741    1.9761 F       1  LIG1        0.0000
      2 C2          4.6982    3.1708    2.2411 C.3     1  LIG1        0.0000
      3 F3          3.8429    2.9271    3.2300 F       1  LIG1        0.0000
      4 F4          5.9172    2.7811    2.6031 F       1  LIG1        0.0000
      5 C5          4.2692    2.4052    1.0000 C.3     1  LIG1        0.0000
      6 N6          2.8072    2.2516    1.0000 N.pl3   1  LIG1        0.0000
      7 N7          2.2500    1.0000    1.0000 N.2     1  LIG1        0.0000
      8 C8          1.0000    1.0000    1.0000 C.2     1  LIG1        0.0000
      9 C9          0.2749    2.2560    1.0000 C.ar    1  LIG1        0.0000
     10 C10         0.4719    3.1362   -0.0581 C.ar    1  LIG1        0.0000
     11 C11        -0.2078    4.3494   -0.0898 C.ar    1  LIG1        0.0000
     12 C12        -1.0849    4.6828    0.9379 C.ar    1  LIG1        0.0000
     13 C13        -1.2827    3.8024    1.9966 C.ar    1  LIG1        0.0000
     14 C14        -0.6029    2.5890    2.0283 C.ar    1  LIG1        0.0000
     15 C15        -0.8430    1.6507    3.2003 C.3     1  LIG1        0.0000
     16 C16         0.1519    1.9583    4.3076 C.3     1  LIG1        0.0000
     17 F17        -0.3862    2.8276    5.1582 F       1  LIG1        0.0000
     18 F18         0.4570    0.8365    4.9537 F       1  LIG1        0.0000
     19 F19         1.2556    2.4799    3.7796 F       1  LIG1        0.0000
     20 H           4.5514    2.9089    0.1835 H       1  LIG1        0.0000
     21 H           4.6992    1.5024    1.0000 H       1  LIG1        0.0000
     22 H           2.2194    3.0606    1.0000 H       1  LIG1        0.0000
     23 H           0.5000    0.1340    1.0000 H       1  LIG1        0.0000
     24 H           1.1025    2.8970   -0.7965 H       1  LIG1        0.0000
     25 H          -0.0662    4.9821   -0.8512 H       1  LIG1        0.0000
     26 H          -1.5731    5.5553    0.9153 H       1  LIG1        0.0000
     27 H          -1.9134    4.0416    2.7349 H       1  LIG1        0.0000
     28 H          -0.7247    0.7044    2.8994 H       1  LIG1        0.0000
     29 H          -1.7736    1.7775    3.5437 H       1  LIG1        0.0000
@<TRIPOS>BOND
     1     1     2    1
     2     2     3    1
     3     2     4    1
     4     2     5    1
     5     5     6    1
     6     6     7    1
     7     7     8    2
     8     8     9    1
     9     9    10   ar
    10    10    11   ar
    11    11    12   ar
    12    12    13   ar
    13    13    14   ar
    14    14     9   ar
    15    14    15    1
    16    15    16    1
    17    16    17    1
    18    16    18    1
    19    16    19    1
    20     5    20    1
    21     5    21    1
    22     6    22    1
    23     8    23    1
    24    10    24    1
    25    11    25    1
    26    12    26    1
    27    13    27    1
    28    15    28    1
    29    15    29    1
