@<TRIPOS>MOLECULE
*****
 29 29 0 0 0
SMALL
USER_CHARGES

@<TRIPOS>ATOM
      1 F1          5.0511    1.2266   -0.8510 F       1  LIG1        0.0000
      2 C2          4.7731    2.4582   -0.4331 C.3     1  LIG1        0.0000
      3 F3          3.8363    2.9901   -1.2130 F       1  LIG1        0.0000
      4 F4          5.8727    3.2042   -0.4891 F       1  LIG1        0.0000
      5 C5          4.2692    2.4052    1.0000 C.3     1  LIG1        0.0000
      6 N6          2.8072    2.2516    1.0000 N.pl3   1  LIG1        0.0000
      7 N7          2.2500    1.0000    1.0000 N.2     1  LIG1        0.0000
      8 C8          1.0000    1.0000    1.0000 C.2     1  LIG1        0.0000
      9 C9          0.2749    2.2560    1.0000 C.ar    1  LIG1        0.0000
     10 C10         0.4721    3.1363    2.0580 C.ar    1  LIG1        0.0000
     11 C11        -0.2072    4.3498    2.0894 C.ar    1  LIG1        0.0000
     12 C12        -1.0848    4.6829    1.0620 C.ar    1  LIG1        0.0000
     13 C13        -1.2823    3.8026    0.0031 C.ar    1  LIG1        0.0000
     14 C14        -0.6029    2.5890   -0.0283 C.ar    1  LIG1        0.0000
     15 C15        -0.8425    1.6510   -1.2006 C.3     1  LIG1        0.0000
     16 C16         0.1524    1.9592   -2.3077 C.3     1  LIG1        0.0000
     17 F17         1.2234    1.1827   -2.1701 F       1  LIG1        0.0000
     18 F18        -0.4135    1.7288   -3.4890 F       1  LIG1        0.0000
     19 F19         0.5178    3.2358   -2.2326 F       1  LIG1        0.0000
     20 H           4.6860    1.6280    1.4714 H       1  LIG1        0.0000
     21 H           4.5153    3.2521    1.4714 H       1  LIG1        0.0000
     22 H           2.2194    3.0606    1.0000 H       1  LIG1        0.0000
     23 H           0.5000    0.1340    1.0000 H       1  LIG1        0.0000
     24 H           1.1024    2.8970    2.7965 H       1  LIG1        0.0000
     25 H          -0.0648    4.9829    2.8503 H       1  LIG1        0.0000
     26 H          -1.5736    5.5550    1.0850 H       1  LIG1        0.0000
     27 H          -1.9126    4.0421   -0.7354 H       1  LIG1        0.0000
     28 H          -1.7731    1.7776   -1.5440 H       1  LIG1        0.0000
     29 H          -0.7240    0.7046   -0.8999 H       1  LIG1        0.0000
@<TRIPOS>BOND
     1     1     2    1
     2     2     3    1
     3     2     4    1
     4     2     5    1
     5     5     6    1
     6     6     7    1
     7     7     8    2
     8     8     9    1
     9     9    10   ar
    10    10    11   ar
    11    11    12   ar
    12    12    13   ar
    13    13    14   ar
    14    14     9   ar
    15    14    15    1
    16    15    16    1
    17    16    17    1
    18    16    18    1
    19    16    19    1
    20     5    20    1
    21     5    21    1
    22     6    22    1
    23     8    23    1
    24    10    24    1
    25    11    25    1
    26    12    26    1
    27    13    27    1
    28    15    28    1
    29    15    29    1
