@<TRIPOS>MOLECULE

  22   23
SMALL
USER_CHARGES
@<TRIPOS>ATOM
   1 C1           2.4779    -0.6942    -0.8800 C.3          1    LIG   0.0000
   2 N2           1.2270    -0.3412    -0.1928 N.pl3        1    LIG   0.0000
   3 C3           0.2958    -1.3277     0.1526 C.2          1    LIG   0.0000
   4 O4           0.6771    -2.5955     0.4261 O.3          1    LIG  -1.0000
   5 C5          -0.9739    -0.9716     0.2015 C.2          1    LIG   0.0000
   6 N6          -1.2950     0.3579    -0.0950 N.pl3        1    LIG   0.0000
   7 C7          -2.5368     0.6978    -0.6501 C.2          1    LIG   0.0000
   8 N8          -3.5347    -0.0985    -0.9756 N.2          1    LIG   0.0000
   9 C9          -4.6379     0.5063    -1.5228 C.2          1    LIG   0.0000
  10 Cl10        -6.1124    -0.3350    -2.0547 Cl           1    LIG   0.0000
  11 C11         -4.5718     1.8584    -1.6613 C.2          1    LIG   0.0000
  12 S12         -3.0394     2.2749    -1.0521 S.3          1    LIG   0.0000
  13 C13         -0.3353     1.3384     0.1807 C.2          1    LIG   0.0000
  14 C14          0.9361     0.9892     0.1316 C.2          1    LIG   0.0000
  15 O15          1.9146     1.8864     0.3863 O.3          1    LIG   0.0000
  16 H            3.0135     0.1343    -1.0438 H            1    LIG   0.0000
  17 H            3.0050    -1.3245    -0.3100 H            1    LIG   0.0000
  18 H            2.2662    -1.1324    -1.7535 H            1    LIG   0.0000
  19 H           -1.6851    -1.6318     0.4430 H            1    LIG   0.0000
  20 H           -5.2681     2.4700    -2.0369 H            1    LIG   0.0000
  21 H           -0.6047     2.2742     0.4079 H            1    LIG   0.0000
  22 H            1.6795     2.8309     0.6157 H            1    LIG   0.0000
@<TRIPOS>BOND
   1        1        2 1
   2        2        3 1
   3        3        4 1
   4        3        5 2
   5        5        6 1
   6        6        7 1
   7        7        8 2
   8        8        9 1
   9        9       10 1
  10        9       11 2
  11       11       12 1
  12       12        7 1
  13        6       13 1
  14       13       14 2
  15       14        2 1
  16       14       15 1
  17        1       16 1
  18        1       17 1
  19        1       18 1
  20        5       19 1
  21       11       20 1
  22       13       21 1
  23       15       22 1

@<TRIPOS>MOLECULE

  22   23
SMALL
USER_CHARGES
@<TRIPOS>ATOM
   1 C1           2.4779    -0.6942    -0.8800 C.3          1    LIG   0.0000
   2 N2           1.2270    -0.3412    -0.1928 N.pl3        1    LIG   0.0000
   3 C3           0.2958    -1.3277     0.1526 C.2          1    LIG   0.0000
   4 O4           0.6771    -2.5955     0.4261 O.3          1    LIG  -1.0000
   5 C5          -0.9739    -0.9716     0.2015 C.2          1    LIG   0.0000
   6 N6          -1.2950     0.3579    -0.0950 N.pl3        1    LIG   0.0000
   7 C7          -2.5368     0.6978    -0.6501 C.2          1    LIG   0.0000
   8 N8          -3.6569     1.0034    -0.0274 N.2          1    LIG   0.0000
   9 C9          -4.7374     1.2804    -0.8262 C.2          1    LIG   0.0000
  10 Cl10        -6.3619     1.7114    -0.2432 Cl           1    LIG   0.0000
  11 C11         -4.5227     1.2102    -2.1680 C.2          1    LIG   0.0000
  12 S12         -2.8838     0.7800    -2.3156 S.3          1    LIG   0.0000
  13 C13         -0.3353     1.3384     0.1807 C.2          1    LIG   0.0000
  14 C14          0.9361     0.9892     0.1316 C.2          1    LIG   0.0000
  15 O15          1.9146     1.8864     0.3863 O.3          1    LIG   0.0000
  16 H            3.0135     0.1343    -1.0438 H            1    LIG   0.0000
  17 H            3.0050    -1.3245    -0.3100 H            1    LIG   0.0000
  18 H            2.2662    -1.1324    -1.7535 H            1    LIG   0.0000
  19 H           -1.6851    -1.6318     0.4430 H            1    LIG   0.0000
  20 H           -5.1809     1.3747    -2.9027 H            1    LIG   0.0000
  21 H           -0.6047     2.2742     0.4079 H            1    LIG   0.0000
  22 H            1.6795     2.8309     0.6157 H            1    LIG   0.0000
@<TRIPOS>BOND
   1        1        2 1
   2        2        3 1
   3        3        4 1
   4        3        5 2
   5        5        6 1
   6        6        7 1
   7        7        8 2
   8        8        9 1
   9        9       10 1
  10        9       11 2
  11       11       12 1
  12       12        7 1
  13        6       13 1
  14       13       14 2
  15       14        2 1
  16       14       15 1
  17        1       16 1
  18        1       17 1
  19        1       18 1
  20        5       19 1
  21       11       20 1
  22       13       21 1
  23       15       22 1

@<TRIPOS>MOLECULE

  22   23
SMALL
USER_CHARGES
@<TRIPOS>ATOM
   1 C1           2.4779    -0.6942    -0.8800 C.3          1    LIG   0.0000
   2 N2           1.2270    -0.3412    -0.1928 N.pl3        1    LIG   0.0000
   3 C3           0.2958    -1.3277     0.1526 C.2          1    LIG   0.0000
   4 O4           0.6771    -2.5955     0.4261 O.3          1    LIG  -1.0000
   5 C5          -0.9739    -0.9716     0.2015 C.2          1    LIG   0.0000
   6 N6          -1.2950     0.3579    -0.0950 N.pl3        1    LIG   0.0000
   7 C7          -2.5368     0.6978    -0.6501 C.2          1    LIG   0.0000
   8 N8          -2.8686     0.7897    -1.9219 N.2          1    LIG   0.0000
   9 C9          -4.1625     1.1627    -2.1844 C.2          1    LIG   0.0000
  10 Cl10        -4.8630     1.3682    -3.8066 Cl           1    LIG   0.0000
  11 C11         -4.9513     1.3901    -1.0991 C.2          1    LIG   0.0000
  12 S12         -3.9376     1.0941     0.2342 S.3          1    LIG   0.0000
  13 C13         -0.3353     1.3384     0.1807 C.2          1    LIG   0.0000
  14 C14          0.9361     0.9892     0.1316 C.2          1    LIG   0.0000
  15 O15          1.9146     1.8864     0.3863 O.3          1    LIG   0.0000
  16 H            3.0135     0.1343    -1.0438 H            1    LIG   0.0000
  17 H            3.0050    -1.3245    -0.3100 H            1    LIG   0.0000
  18 H            2.2662    -1.1324    -1.7535 H            1    LIG   0.0000
  19 H           -1.6851    -1.6318     0.4430 H            1    LIG   0.0000
  20 H           -5.9116     1.6687    -1.0880 H            1    LIG   0.0000
  21 H           -0.6047     2.2742     0.4079 H            1    LIG   0.0000
  22 H            1.6795     2.8309     0.6157 H            1    LIG   0.0000
@<TRIPOS>BOND
   1        1        2 1
   2        2        3 1
   3        3        4 1
   4        3        5 2
   5        5        6 1
   6        6        7 1
   7        7        8 2
   8        8        9 1
   9        9       10 1
  10        9       11 2
  11       11       12 1
  12       12        7 1
  13        6       13 1
  14       13       14 2
  15       14        2 1
  16       14       15 1
  17        1       16 1
  18        1       17 1
  19        1       18 1
  20        5       19 1
  21       11       20 1
  22       13       21 1
  23       15       22 1

@<TRIPOS>MOLECULE

  22   23
SMALL
USER_CHARGES
@<TRIPOS>ATOM
   1 C1           2.4779    -0.6942    -0.8800 C.3          1    LIG   0.0000
   2 N2           1.2270    -0.3412    -0.1928 N.pl3        1    LIG   0.0000
   3 C3           0.2958    -1.3277     0.1526 C.2          1    LIG   0.0000
   4 O4           0.6771    -2.5955     0.4261 O.3          1    LIG  -1.0000
   5 C5          -0.9739    -0.9716     0.2015 C.2          1    LIG   0.0000
   6 N6          -1.2950     0.3579    -0.0950 N.pl3        1    LIG   0.0000
   7 C7          -2.5368     0.6978    -0.6501 C.2          1    LIG   0.0000
   8 N8          -2.9908     1.8916    -0.9736 N.2          1    LIG   0.0000
   9 C9          -4.2620     1.9368    -1.4877 C.2          1    LIG   0.0000
  10 Cl10        -5.1125     3.4146    -1.9951 Cl           1    LIG   0.0000
  11 C11         -4.9022     0.7419    -1.6059 C.2          1    LIG   0.0000
  12 S12         -3.7820    -0.4007    -1.0294 S.3          1    LIG   0.0000
  13 C13         -0.3353     1.3384     0.1807 C.2          1    LIG   0.0000
  14 C14          0.9361     0.9892     0.1316 C.2          1    LIG   0.0000
  15 O15          1.9146     1.8864     0.3863 O.3          1    LIG   0.0000
  16 H            3.0135     0.1343    -1.0438 H            1    LIG   0.0000
  17 H            3.0050    -1.3245    -0.3100 H            1    LIG   0.0000
  18 H            2.2662    -1.1324    -1.7535 H            1    LIG   0.0000
  19 H           -1.6851    -1.6318     0.4430 H            1    LIG   0.0000
  20 H           -5.8244     0.5734    -1.9537 H            1    LIG   0.0000
  21 H           -0.6047     2.2742     0.4079 H            1    LIG   0.0000
  22 H            1.6795     2.8309     0.6157 H            1    LIG   0.0000
@<TRIPOS>BOND
   1        1        2 1
   2        2        3 1
   3        3        4 1
   4        3        5 2
   5        5        6 1
   6        6        7 1
   7        7        8 2
   8        8        9 1
   9        9       10 1
  10        9       11 2
  11       11       12 1
  12       12        7 1
  13        6       13 1
  14       13       14 2
  15       14        2 1
  16       14       15 1
  17        1       16 1
  18        1       17 1
  19        1       18 1
  20        5       19 1
  21       11       20 1
  22       13       21 1
  23       15       22 1

@<TRIPOS>MOLECULE

  22   23
SMALL
USER_CHARGES
@<TRIPOS>ATOM
   1 C1           1.1817    -2.0873    -1.3105 C.3          1    LIG   0.0000
   2 N2           0.4648    -0.9035    -0.8136 N.pl3        1    LIG   0.0000
   3 C3          -0.8710    -0.9888    -0.4028 C.2          1    LIG   0.0000
   4 O4          -1.7182    -1.8965    -0.9357 O.3          1    LIG  -1.0000
   5 C5          -1.2793    -0.1474     0.5278 C.2          1    LIG   0.0000
   6 N6          -0.3510     0.7667     1.0393 N.pl3        1    LIG   0.0000
   7 C7          -0.4638     1.2509     2.3503 C.2          1    LIG   0.0000
   8 N8          -1.3826     0.9699     3.2517 N.2          1    LIG   0.0000
   9 C9          -1.2592     1.6065     4.4607 C.2          1    LIG   0.0000
  10 Cl10        -2.3643     1.4123     5.8411 Cl           1    LIG   0.0000
  11 C11         -0.1993     2.4506     4.5867 C.2          1    LIG   0.0000
  12 S12          0.5973     2.3615     3.0866 S.3          1    LIG   0.0000
  13 C13          0.6881     1.1766     0.1950 C.2          1    LIG   0.0000
  14 C14          1.1034     0.3400    -0.7379 C.2          1    LIG   0.0000
  15 O15          2.1036     0.6708    -1.5858 O.3          1    LIG   0.0000
  16 H            2.1174    -1.8324    -1.5544 H            1    LIG   0.0000
  17 H            1.2022    -2.7882    -0.5976 H            1    LIG   0.0000
  18 H            0.7129    -2.4464    -2.1176 H            1    LIG   0.0000
  19 H           -2.2233    -0.1623     0.8576 H            1    LIG   0.0000
  20 H            0.0543     3.0000     5.3827 H            1    LIG   0.0000
  21 H            1.1049     2.0800     0.2961 H            1    LIG   0.0000
  22 H            2.5454     1.5650    -1.5133 H            1    LIG   0.0000
@<TRIPOS>BOND
   1        1        2 1
   2        2        3 1
   3        3        4 1
   4        3        5 2
   5        5        6 1
   6        6        7 1
   7        7        8 2
   8        8        9 1
   9        9       10 1
  10        9       11 2
  11       11       12 1
  12       12        7 1
  13        6       13 1
  14       13       14 2
  15       14        2 1
  16       14       15 1
  17        1       16 1
  18        1       17 1
  19        1       18 1
  20        5       19 1
  21       11       20 1
  22       13       21 1
  23       15       22 1

@<TRIPOS>MOLECULE

  22   23
SMALL
USER_CHARGES
@<TRIPOS>ATOM
   1 C1           1.1817    -2.0873    -1.3105 C.3          1    LIG   0.0000
   2 N2           0.4648    -0.9035    -0.8136 N.pl3        1    LIG   0.0000
   3 C3          -0.8710    -0.9888    -0.4028 C.2          1    LIG   0.0000
   4 O4          -1.7182    -1.8965    -0.9357 O.3          1    LIG  -1.0000
   5 C5          -1.2793    -0.1474     0.5278 C.2          1    LIG   0.0000
   6 N6          -0.3510     0.7667     1.0393 N.pl3        1    LIG   0.0000
   7 C7          -0.4638     1.2509     2.3503 C.2          1    LIG   0.0000
   8 N8           0.0445     0.7473     3.4566 N.2          1    LIG   0.0000
   9 C9          -0.2410     1.4228     4.6161 C.2          1    LIG   0.0000
  10 Cl10         0.3118     0.9538     6.2406 Cl           1    LIG   0.0000
  11 C11         -1.0128     2.5359     4.4852 C.2          1    LIG   0.0000
  12 S12         -1.3272     2.6430     2.8171 S.3          1    LIG   0.0000
  13 C13          0.6881     1.1766     0.1950 C.2          1    LIG   0.0000
  14 C14          1.1034     0.3400    -0.7379 C.2          1    LIG   0.0000
  15 O15          2.1036     0.6708    -1.5858 O.3          1    LIG   0.0000
  16 H            2.1174    -1.8324    -1.5544 H            1    LIG   0.0000
  17 H            1.2022    -2.7882    -0.5976 H            1    LIG   0.0000
  18 H            0.7129    -2.4464    -2.1176 H            1    LIG   0.0000
  19 H           -2.2233    -0.1623     0.8576 H            1    LIG   0.0000
  20 H           -1.3251     3.1526     5.2078 H            1    LIG   0.0000
  21 H            1.1049     2.0800     0.2961 H            1    LIG   0.0000
  22 H            2.5454     1.5650    -1.5133 H            1    LIG   0.0000
@<TRIPOS>BOND
   1        1        2 1
   2        2        3 1
   3        3        4 1
   4        3        5 2
   5        5        6 1
   6        6        7 1
   7        7        8 2
   8        8        9 1
   9        9       10 1
  10        9       11 2
  11       11       12 1
  12       12        7 1
  13        6       13 1
  14       13       14 2
  15       14        2 1
  16       14       15 1
  17        1       16 1
  18        1       17 1
  19        1       18 1
  20        5       19 1
  21       11       20 1
  22       13       21 1
  23       15       22 1

@<TRIPOS>MOLECULE

  22   23
SMALL
USER_CHARGES
@<TRIPOS>ATOM
   1 C1           1.1817    -2.0873    -1.3105 C.3          1    LIG   0.0000
   2 N2           0.4648    -0.9035    -0.8136 N.pl3        1    LIG   0.0000
   3 C3          -0.8710    -0.9888    -0.4028 C.2          1    LIG   0.0000
   4 O4          -1.7182    -1.8965    -0.9357 O.3          1    LIG  -1.0000
   5 C5          -1.2793    -0.1474     0.5278 C.2          1    LIG   0.0000
   6 N6          -0.3510     0.7667     1.0393 N.pl3        1    LIG   0.0000
   7 C7          -0.4638     1.2509     2.3503 C.2          1    LIG   0.0000
   8 N8          -1.1038     2.3207     2.7767 N.2          1    LIG   0.0000
   9 C9          -1.0338     2.5710     4.1238 C.2          1    LIG   0.0000
  10 Cl10        -1.7977     3.9466     4.9538 Cl           1    LIG   0.0000
  11 C11         -0.3142     1.6818     4.8607 C.2          1    LIG   0.0000
  12 S12          0.2410     0.5404     3.7286 S.3          1    LIG   0.0000
  13 C13          0.6881     1.1766     0.1950 C.2          1    LIG   0.0000
  14 C14          1.1034     0.3400    -0.7379 C.2          1    LIG   0.0000
  15 O15          2.1036     0.6708    -1.5858 O.3          1    LIG   0.0000
  16 H            2.1174    -1.8324    -1.5544 H            1    LIG   0.0000
  17 H            1.2022    -2.7882    -0.5976 H            1    LIG   0.0000
  18 H            0.7129    -2.4464    -2.1176 H            1    LIG   0.0000
  19 H           -2.2233    -0.1623     0.8576 H            1    LIG   0.0000
  20 H           -0.1488     1.6962     5.8469 H            1    LIG   0.0000
  21 H            1.1049     2.0800     0.2961 H            1    LIG   0.0000
  22 H            2.5454     1.5650    -1.5133 H            1    LIG   0.0000
@<TRIPOS>BOND
   1        1        2 1
   2        2        3 1
   3        3        4 1
   4        3        5 2
   5        5        6 1
   6        6        7 1
   7        7        8 2
   8        8        9 1
   9        9       10 1
  10        9       11 2
  11       11       12 1
  12       12        7 1
  13        6       13 1
  14       13       14 2
  15       14        2 1
  16       14       15 1
  17        1       16 1
  18        1       17 1
  19        1       18 1
  20        5       19 1
  21       11       20 1
  22       13       21 1
  23       15       22 1

@<TRIPOS>MOLECULE

  22   23
SMALL
USER_CHARGES
@<TRIPOS>ATOM
   1 C1           1.1817    -2.0873    -1.3105 C.3          1    LIG   0.0000
   2 N2           0.4648    -0.9035    -0.8136 N.pl3        1    LIG   0.0000
   3 C3          -0.8710    -0.9888    -0.4028 C.2          1    LIG   0.0000
   4 O4          -1.7182    -1.8965    -0.9357 O.3          1    LIG  -1.0000
   5 C5          -1.2793    -0.1474     0.5278 C.2          1    LIG   0.0000
   6 N6          -0.3510     0.7667     1.0393 N.pl3        1    LIG   0.0000
   7 C7          -0.4638     1.2509     2.3503 C.2          1    LIG   0.0000
   8 N8           0.3233     2.0981     2.9816 N.2          1    LIG   0.0000
   9 C9          -0.0157     2.3873     4.2792 C.2          1    LIG   0.0000
  10 Cl10         0.8784     3.4881     5.3533 Cl           1    LIG   0.0000
  11 C11         -1.1276     1.7671     4.7593 C.2          1    LIG   0.0000
  12 S12         -1.6834     0.8219     3.4591 S.3          1    LIG   0.0000
  13 C13          0.6881     1.1766     0.1950 C.2          1    LIG   0.0000
  14 C14          1.1034     0.3400    -0.7379 C.2          1    LIG   0.0000
  15 O15          2.1036     0.6708    -1.5858 O.3          1    LIG   0.0000
  16 H            2.1174    -1.8324    -1.5544 H            1    LIG   0.0000
  17 H            1.2022    -2.7882    -0.5976 H            1    LIG   0.0000
  18 H            0.7129    -2.4464    -2.1176 H            1    LIG   0.0000
  19 H           -2.2233    -0.1623     0.8576 H            1    LIG   0.0000
  20 H           -1.5282     1.8487     5.6719 H            1    LIG   0.0000
  21 H            1.1049     2.0800     0.2961 H            1    LIG   0.0000
  22 H            2.5454     1.5650    -1.5133 H            1    LIG   0.0000
@<TRIPOS>BOND
   1        1        2 1
   2        2        3 1
   3        3        4 1
   4        3        5 2
   5        5        6 1
   6        6        7 1
   7        7        8 2
   8        8        9 1
   9        9       10 1
  10        9       11 2
  11       11       12 1
  12       12        7 1
  13        6       13 1
  14       13       14 2
  15       14        2 1
  16       14       15 1
  17        1       16 1
  18        1       17 1
  19        1       18 1
  20        5       19 1
  21       11       20 1
  22       13       21 1
  23       15       22 1

