@<TRIPOS>MOLECULE
*****
 22 23 0 0 0
SMALL
USER_CHARGES

@<TRIPOS>ATOM
      1 C1          2.4779   -0.6942   -0.8800 C.3     1  LIG1        0.0000
      2 N2          1.2270   -0.3412   -0.1928 N.pl3   1  LIG1        0.0000
      3 C3          0.2958   -1.3277    0.1526 C.2     1  LIG1        0.0000
      4 O4          0.6771   -2.5955    0.4261 O.2     1  LIG1       -1.0000
      5 C5         -0.9739   -0.9716    0.2015 C.2     1  LIG1        0.0000
      6 N6         -1.2950    0.3579   -0.0950 N.pl3   1  LIG1        0.0000
      7 C7         -2.5368    0.6978   -0.6501 C.2     1  LIG1        0.0000
      8 N8         -2.9908    1.8916   -0.9736 N.2     1  LIG1        0.0000
      9 C9         -4.2620    1.9368   -1.4877 C.2     1  LIG1        0.0000
     10 Cl10       -5.1125    3.4146   -1.9951 Cl      1  LIG1        0.0000
     11 C11        -4.9022    0.7419   -1.6059 C.2     1  LIG1        0.0000
     12 S12        -3.7820   -0.4007   -1.0294 S.3     1  LIG1        0.0000
     13 C13        -0.3353    1.3384    0.1807 C.2     1  LIG1        0.0000
     14 C14         0.9361    0.9892    0.1316 C.2     1  LIG1        0.0000
     15 O15         1.9146    1.8864    0.3863 O.2     1  LIG1        0.0000
     16 H           3.0135    0.1343   -1.0438 H       1  LIG1        0.0000
     17 H           3.0050   -1.3245   -0.3100 H       1  LIG1        0.0000
     18 H           2.2662   -1.1324   -1.7535 H       1  LIG1        0.0000
     19 H          -1.6851   -1.6318    0.4430 H       1  LIG1        0.0000
     20 H          -5.8244    0.5734   -1.9537 H       1  LIG1        0.0000
     21 H          -0.6047    2.2742    0.4079 H       1  LIG1        0.0000
     22 H           1.6795    2.8309    0.6157 H       1  LIG1        0.0000
@<TRIPOS>UNITY_ATOM_ATTR
4 1
charge -1
@<TRIPOS>BOND
     1     1     2    1
     2     2     3    1
     3     3     4    1
     4     3     5    2
     5     5     6    1
     6     6     7    1
     7     7     8    2
     8     8     9    1
     9     9    10    1
    10     9    11    2
    11    11    12    1
    12    12     7    1
    13     6    13    1
    14    13    14    2
    15    14     2    1
    16    14    15    1
    17     1    16    1
    18     1    17    1
    19     1    18    1
    20     5    19    1
    21    11    20    1
    22    13    21    1
    23    15    22    1
