@<TRIPOS>MOLECULE
*****
 22 23 0 0 0
SMALL
USER_CHARGES

@<TRIPOS>ATOM
      1 C1          1.1817   -2.0873   -1.3105 C.3     1  LIG1        0.0000
      2 N2          0.4648   -0.9035   -0.8136 N.pl3   1  LIG1        0.0000
      3 C3         -0.8710   -0.9888   -0.4028 C.2     1  LIG1        0.0000
      4 O4         -1.7182   -1.8965   -0.9357 O.2     1  LIG1       -1.0000
      5 C5         -1.2793   -0.1474    0.5278 C.2     1  LIG1        0.0000
      6 N6         -0.3510    0.7667    1.0393 N.pl3   1  LIG1        0.0000
      7 C7         -0.4638    1.2509    2.3503 C.2     1  LIG1        0.0000
      8 N8          0.3233    2.0981    2.9816 N.2     1  LIG1        0.0000
      9 C9         -0.0157    2.3873    4.2792 C.2     1  LIG1        0.0000
     10 Cl10        0.8784    3.4881    5.3533 Cl      1  LIG1        0.0000
     11 C11        -1.1276    1.7671    4.7593 C.2     1  LIG1        0.0000
     12 S12        -1.6834    0.8219    3.4591 S.3     1  LIG1        0.0000
     13 C13         0.6881    1.1766    0.1950 C.2     1  LIG1        0.0000
     14 C14         1.1034    0.3400   -0.7379 C.2     1  LIG1        0.0000
     15 O15         2.1036    0.6708   -1.5858 O.2     1  LIG1        0.0000
     16 H           2.1174   -1.8324   -1.5544 H       1  LIG1        0.0000
     17 H           1.2022   -2.7882   -0.5976 H       1  LIG1        0.0000
     18 H           0.7129   -2.4464   -2.1176 H       1  LIG1        0.0000
     19 H          -2.2233   -0.1623    0.8576 H       1  LIG1        0.0000
     20 H          -1.5282    1.8487    5.6719 H       1  LIG1        0.0000
     21 H           1.1049    2.0800    0.2961 H       1  LIG1        0.0000
     22 H           2.5454    1.5650   -1.5133 H       1  LIG1        0.0000
@<TRIPOS>UNITY_ATOM_ATTR
4 1
charge -1
@<TRIPOS>BOND
     1     1     2    1
     2     2     3    1
     3     3     4    1
     4     3     5    2
     5     5     6    1
     6     6     7    1
     7     7     8    2
     8     8     9    1
     9     9    10    1
    10     9    11    2
    11    11    12    1
    12    12     7    1
    13     6    13    1
    14    13    14    2
    15    14     2    1
    16    14    15    1
    17     1    16    1
    18     1    17    1
    19     1    18    1
    20     5    19    1
    21    11    20    1
    22    13    21    1
    23    15    22    1
