@<TRIPOS>MOLECULE

  65   68
SMALL
USER_CHARGES
@<TRIPOS>ATOM
   1 C1          -5.3664     0.7139    -1.5980 C.3          1    LIG   0.0000
   2 O2          -4.6946    -0.5221    -1.4050 O.3          1    LIG   0.0000
   3 C3          -3.4809    -0.4387    -0.8207 C.ar         1    LIG   0.0000
   4 C4          -2.9770     0.8053    -0.4548 C.ar         1    LIG   0.0000
   5 C5          -1.7251     0.8845     0.1469 C.ar         1    LIG   0.0000
   6 C6          -0.9895    -0.2734     0.3778 C.ar         1    LIG   0.0000
   7 C7           0.3150    -0.1864     1.0054 C.2          1    LIG   0.0000
   8 O8           0.7944    -1.1537     1.5294 O.2          1    LIG   0.0000
   9 N9           1.0000     1.0000     1.0000 N.am         1    LIG   0.0000
  10 C10          2.4002     1.0000     1.0000 C.ar         1    LIG   0.0000
  11 C11          3.0838     2.2112     0.9945 C.ar         1    LIG   0.0000
  12 C12          4.4746     2.2046     0.9949 C.ar         1    LIG   0.0000
  13 C13          5.1642     0.9958     0.9997 C.ar         1    LIG   0.0000
  14 C14          6.6150     0.9993     1.0006 C.2          1    LIG   0.0000
  15 N15          7.3778    -0.0665     1.0022 N.2          1    LIG   0.0000
  16 C16          8.6513     0.4084     1.0076 C.2          1    LIG   0.0000
  17 C17          9.9208    -0.4279     1.0127 C.3          1    LIG   0.0000
  18 C18         10.7401    -0.1128    -0.2282 C.3          1    LIG   0.0000
  19 C19         10.7361    -0.1037     2.2539 C.3          1    LIG   0.0000
  20 N20          8.5858     1.7152     1.0027 N.2          1    LIG   0.0000
  21 O21          7.3718     2.0695     0.9973 O.2          1    LIG   0.0000
  22 C22          4.4718    -0.2103     1.0045 C.ar         1    LIG   0.0000
  23 C23          3.0806    -0.2129     1.0054 C.ar         1    LIG   0.0000
  24 C24         -1.4903    -1.5192     0.0135 C.ar         1    LIG   0.0000
  25 C25         -2.7423    -1.5936    -0.5877 C.ar         1    LIG   0.0000
  26 S26         -3.3869    -3.1417    -1.0495 S.o2         1    LIG   0.0000
  27 O27         -3.8417    -3.0845    -2.4146 O.2          1    LIG   0.0000
  28 O28         -2.3610    -4.1447    -0.9270 O.2          1    LIG   0.0000
  29 N29         -4.7378    -3.5524     0.0024 N.3          1    LIG   0.0000
  30 C30         -5.8150    -2.5689    -0.2066 C.3          1    LIG   0.0000
  31 C31         -7.0231    -2.7857     0.6962 C.3          1    LIG   0.0000
  32 C32         -6.7656    -2.3637     2.1373 C.3          1    LIG   0.0000
  33 C33         -6.2524    -3.4890     3.0244 C.3          1    LIG   0.0000
  34 C34         -5.2710    -4.4061     2.3083 C.3          1    LIG   0.0000
  35 C35         -4.2768    -3.6888     1.3970 C.3          1    LIG   0.0000
  36 H           -6.2507     0.5481    -2.0345 H            1    LIG   0.0000
  37 H           -5.5093     1.1574    -0.7132 H            1    LIG   0.0000
  38 H           -4.8122     1.3068    -2.1823 H            1    LIG   0.0000
  39 H           -3.5097     1.6348    -0.6227 H            1    LIG   0.0000
  40 H           -1.3539     1.7740     0.4134 H            1    LIG   0.0000
  41 H            0.5000     1.8660     0.9961 H            1    LIG   0.0000
  42 H            2.5816     3.0760     0.9903 H            1    LIG   0.0000
  43 H            4.9788     3.0681     0.9919 H            1    LIG   0.0000
  44 H            9.6805    -1.3986     1.0159 H            1    LIG   0.0000
  45 H           11.5752    -0.6629    -0.2248 H            1    LIG   0.0000
  46 H           10.2037    -0.3261    -1.0448 H            1    LIG   0.0000
  47 H           10.9804     0.8579    -0.2314 H            1    LIG   0.0000
  48 H           11.5712    -0.6538     2.2573 H            1    LIG   0.0000
  49 H           10.9764     0.8670     2.2508 H            1    LIG   0.0000
  50 H           10.1971    -0.3110     3.0703 H            1    LIG   0.0000
  51 H            4.9737    -1.0752     1.0073 H            1    LIG   0.0000
  52 H            2.5760    -1.0763     1.0098 H            1    LIG   0.0000
  53 H           -0.9580    -2.3490     0.1814 H            1    LIG   0.0000
  54 H           -6.1168    -2.6281    -1.1582 H            1    LIG   0.0000
  55 H           -5.4479    -1.6557    -0.0296 H            1    LIG   0.0000
  56 H           -7.2601    -3.7572     0.6851 H            1    LIG   0.0000
  57 H           -7.7892    -2.2516     0.3387 H            1    LIG   0.0000
  58 H           -7.6226    -2.0232     2.5240 H            1    LIG   0.0000
  59 H           -6.0863    -1.6298     2.1343 H            1    LIG   0.0000
  60 H           -5.7936    -3.0869     3.8167 H            1    LIG   0.0000
  61 H           -7.0324    -4.0340     3.3319 H            1    LIG   0.0000
  62 H           -4.7529    -4.9090     3.0001 H            1    LIG   0.0000
  63 H           -5.7957    -5.0500     1.7514 H            1    LIG   0.0000
  64 H           -4.1143    -2.7738     1.7662 H            1    LIG   0.0000
  65 H           -3.4203    -4.2050     1.3968 H            1    LIG   0.0000
@<TRIPOS>BOND
   1        1        2 1
   2        2        3 1
   3        3        4 ar
   4        4        5 ar
   5        5        6 ar
   6        6        7 1
   7        7        8 2
   8        7        9 am
   9        9       10 1
  10       10       11 ar
  11       11       12 ar
  12       12       13 ar
  13       13       14 1
  14       14       15 2
  15       15       16 1
  16       16       17 1
  17       17       18 1
  18       17       19 1
  19       16       20 2
  20       20       21 1
  21       21       14 1
  22       13       22 ar
  23       22       23 ar
  24       23       10 ar
  25        6       24 ar
  26       24       25 ar
  27       25        3 ar
  28       25       26 1
  29       26       27 2
  30       26       28 2
  31       26       29 1
  32       29       30 1
  33       30       31 1
  34       31       32 1
  35       32       33 1
  36       33       34 1
  37       34       35 1
  38       35       29 1
  39        1       36 1
  40        1       37 1
  41        1       38 1
  42        4       39 1
  43        5       40 1
  44        9       41 1
  45       11       42 1
  46       12       43 1
  47       17       44 1
  48       18       45 1
  49       18       46 1
  50       18       47 1
  51       19       48 1
  52       19       49 1
  53       19       50 1
  54       22       51 1
  55       23       52 1
  56       24       53 1
  57       30       54 1
  58       30       55 1
  59       31       56 1
  60       31       57 1
  61       32       58 1
  62       32       59 1
  63       33       60 1
  64       33       61 1
  65       34       62 1
  66       34       63 1
  67       35       64 1
  68       35       65 1

@<TRIPOS>MOLECULE

  65   68
SMALL
USER_CHARGES
@<TRIPOS>ATOM
   1 C1          -5.3664     0.7139    -1.5980 C.3          1    LIG   0.0000
   2 O2          -4.6946    -0.5221    -1.4050 O.3          1    LIG   0.0000
   3 C3          -3.4809    -0.4387    -0.8207 C.ar         1    LIG   0.0000
   4 C4          -2.9770     0.8053    -0.4548 C.ar         1    LIG   0.0000
   5 C5          -1.7251     0.8845     0.1469 C.ar         1    LIG   0.0000
   6 C6          -0.9895    -0.2734     0.3778 C.ar         1    LIG   0.0000
   7 C7           0.3150    -0.1864     1.0054 C.2          1    LIG   0.0000
   8 O8           0.7944    -1.1537     1.5294 O.2          1    LIG   0.0000
   9 N9           1.0000     1.0000     1.0000 N.am         1    LIG   0.0000
  10 C10          2.4002     1.0000     1.0000 C.ar         1    LIG   0.0000
  11 C11          3.0838     2.2112     0.9945 C.ar         1    LIG   0.0000
  12 C12          4.4746     2.2046     0.9949 C.ar         1    LIG   0.0000
  13 C13          5.1642     0.9958     0.9997 C.ar         1    LIG   0.0000
  14 C14          6.6150     0.9993     1.0006 C.2          1    LIG   0.0000
  15 N15          7.3778    -0.0665     1.0022 N.2          1    LIG   0.0000
  16 C16          8.6513     0.4084     1.0076 C.2          1    LIG   0.0000
  17 C17          9.9208    -0.4279     1.0127 C.3          1    LIG   0.0000
  18 C18         10.7401    -0.1128    -0.2282 C.3          1    LIG   0.0000
  19 C19         10.7361    -0.1037     2.2539 C.3          1    LIG   0.0000
  20 N20          8.5858     1.7152     1.0027 N.2          1    LIG   0.0000
  21 O21          7.3718     2.0695     0.9973 O.2          1    LIG   0.0000
  22 C22          4.4718    -0.2103     1.0045 C.ar         1    LIG   0.0000
  23 C23          3.0806    -0.2129     1.0054 C.ar         1    LIG   0.0000
  24 C24         -1.4903    -1.5192     0.0135 C.ar         1    LIG   0.0000
  25 C25         -2.7423    -1.5936    -0.5877 C.ar         1    LIG   0.0000
  26 S26         -3.3869    -3.1417    -1.0495 S.o2         1    LIG   0.0000
  27 O27         -2.5619    -4.1877    -0.5026 O.2          1    LIG   0.0000
  28 O28         -4.7282    -3.2738    -0.5425 O.2          1    LIG   0.0000
  29 N29         -3.4081    -3.2685    -2.8054 N.3          1    LIG   0.0000
  30 C30         -2.0201    -3.2267    -3.2986 C.3          1    LIG   0.0000
  31 C31         -1.9106    -3.2697    -4.8178 C.3          1    LIG   0.0000
  32 C32         -2.3016    -1.9518    -5.4747 C.3          1    LIG   0.0000
  33 C33         -3.7712    -1.8712    -5.8626 C.3          1    LIG   0.0000
  34 C34         -4.6905    -2.5169    -4.8354 C.3          1    LIG   0.0000
  35 C35         -4.3077    -2.2508    -3.3807 C.3          1    LIG   0.0000
  36 H           -6.2507     0.5481    -2.0345 H            1    LIG   0.0000
  37 H           -5.5093     1.1574    -0.7132 H            1    LIG   0.0000
  38 H           -4.8122     1.3068    -2.1823 H            1    LIG   0.0000
  39 H           -3.5097     1.6348    -0.6227 H            1    LIG   0.0000
  40 H           -1.3539     1.7740     0.4134 H            1    LIG   0.0000
  41 H            0.5000     1.8660     0.9961 H            1    LIG   0.0000
  42 H            2.5816     3.0760     0.9903 H            1    LIG   0.0000
  43 H            4.9788     3.0681     0.9919 H            1    LIG   0.0000
  44 H            9.6805    -1.3986     1.0159 H            1    LIG   0.0000
  45 H           11.5752    -0.6629    -0.2248 H            1    LIG   0.0000
  46 H           10.2037    -0.3261    -1.0448 H            1    LIG   0.0000
  47 H           10.9804     0.8579    -0.2314 H            1    LIG   0.0000
  48 H           11.5712    -0.6538     2.2573 H            1    LIG   0.0000
  49 H           10.9764     0.8670     2.2508 H            1    LIG   0.0000
  50 H           10.1971    -0.3110     3.0703 H            1    LIG   0.0000
  51 H            4.9737    -1.0752     1.0073 H            1    LIG   0.0000
  52 H            2.5760    -1.0763     1.0098 H            1    LIG   0.0000
  53 H           -0.9580    -2.3490     0.1814 H            1    LIG   0.0000
  54 H           -1.5277    -4.0122    -2.9239 H            1    LIG   0.0000
  55 H           -1.5950    -2.3814    -2.9749 H            1    LIG   0.0000
  56 H           -2.5138    -3.9895    -5.1614 H            1    LIG   0.0000
  57 H           -0.9649    -3.4815    -5.0642 H            1    LIG   0.0000
  58 H           -1.7506    -1.8357    -6.3010 H            1    LIG   0.0000
  59 H           -2.1033    -1.2095    -4.8347 H            1    LIG   0.0000
  60 H           -4.0241    -0.9083    -5.9567 H            1    LIG   0.0000
  61 H           -3.8959    -2.3358    -6.7393 H            1    LIG   0.0000
  62 H           -5.6161    -2.1683    -4.9829 H            1    LIG   0.0000
  63 H           -4.6789    -3.5056    -4.9848 H            1    LIG   0.0000
  64 H           -3.8506    -1.3627    -3.3325 H            1    LIG   0.0000
  65 H           -5.1448    -2.2249    -2.8342 H            1    LIG   0.0000
@<TRIPOS>BOND
   1        1        2 1
   2        2        3 1
   3        3        4 ar
   4        4        5 ar
   5        5        6 ar
   6        6        7 1
   7        7        8 2
   8        7        9 am
   9        9       10 1
  10       10       11 ar
  11       11       12 ar
  12       12       13 ar
  13       13       14 1
  14       14       15 2
  15       15       16 1
  16       16       17 1
  17       17       18 1
  18       17       19 1
  19       16       20 2
  20       20       21 1
  21       21       14 1
  22       13       22 ar
  23       22       23 ar
  24       23       10 ar
  25        6       24 ar
  26       24       25 ar
  27       25        3 ar
  28       25       26 1
  29       26       27 2
  30       26       28 2
  31       26       29 1
  32       29       30 1
  33       30       31 1
  34       31       32 1
  35       32       33 1
  36       33       34 1
  37       34       35 1
  38       35       29 1
  39        1       36 1
  40        1       37 1
  41        1       38 1
  42        4       39 1
  43        5       40 1
  44        9       41 1
  45       11       42 1
  46       12       43 1
  47       17       44 1
  48       18       45 1
  49       18       46 1
  50       18       47 1
  51       19       48 1
  52       19       49 1
  53       19       50 1
  54       22       51 1
  55       23       52 1
  56       24       53 1
  57       30       54 1
  58       30       55 1
  59       31       56 1
  60       31       57 1
  61       32       58 1
  62       32       59 1
  63       33       60 1
  64       33       61 1
  65       34       62 1
  66       34       63 1
  67       35       64 1
  68       35       65 1

@<TRIPOS>MOLECULE

  65   68
SMALL
USER_CHARGES
@<TRIPOS>ATOM
   1 C1          -5.3664     0.7139    -1.5980 C.3          1    LIG   0.0000
   2 O2          -4.6946    -0.5221    -1.4050 O.3          1    LIG   0.0000
   3 C3          -3.4809    -0.4387    -0.8207 C.ar         1    LIG   0.0000
   4 C4          -2.9770     0.8053    -0.4548 C.ar         1    LIG   0.0000
   5 C5          -1.7251     0.8845     0.1469 C.ar         1    LIG   0.0000
   6 C6          -0.9895    -0.2734     0.3778 C.ar         1    LIG   0.0000
   7 C7           0.3150    -0.1864     1.0054 C.2          1    LIG   0.0000
   8 O8           0.7944    -1.1537     1.5294 O.2          1    LIG   0.0000
   9 N9           1.0000     1.0000     1.0000 N.am         1    LIG   0.0000
  10 C10          2.4002     1.0000     1.0000 C.ar         1    LIG   0.0000
  11 C11          3.0838     2.2112     0.9945 C.ar         1    LIG   0.0000
  12 C12          4.4746     2.2046     0.9949 C.ar         1    LIG   0.0000
  13 C13          5.1642     0.9958     0.9997 C.ar         1    LIG   0.0000
  14 C14          6.6150     0.9993     1.0006 C.2          1    LIG   0.0000
  15 N15          7.3778    -0.0665     1.0022 N.2          1    LIG   0.0000
  16 C16          8.6513     0.4084     1.0076 C.2          1    LIG   0.0000
  17 C17          9.9208    -0.4279     1.0127 C.3          1    LIG   0.0000
  18 C18         10.7401    -0.1128    -0.2282 C.3          1    LIG   0.0000
  19 C19         10.7361    -0.1037     2.2539 C.3          1    LIG   0.0000
  20 N20          8.5858     1.7152     1.0027 N.2          1    LIG   0.0000
  21 O21          7.3718     2.0695     0.9973 O.2          1    LIG   0.0000
  22 C22          4.4718    -0.2103     1.0045 C.ar         1    LIG   0.0000
  23 C23          3.0806    -0.2129     1.0054 C.ar         1    LIG   0.0000
  24 C24         -1.4903    -1.5192     0.0135 C.ar         1    LIG   0.0000
  25 C25         -2.7423    -1.5936    -0.5877 C.ar         1    LIG   0.0000
  26 S26         -3.3869    -3.1417    -1.0495 S.o2         1    LIG   0.0000
  27 O27         -4.6261    -3.3727    -0.3533 O.2          1    LIG   0.0000
  28 O28         -3.6239    -3.1587    -2.4697 O.2          1    LIG   0.0000
  29 N29         -2.2346    -4.4056    -0.6316 N.3          1    LIG   0.0000
  30 C30         -2.0771    -4.4355     0.8333 C.3          1    LIG   0.0000
  31 C31         -1.0542    -5.4561     1.3165 C.3          1    LIG   0.0000
  32 C32          0.3823    -5.0184     1.0594 C.3          1    LIG   0.0000
  33 C33          0.9430    -5.5023    -0.2703 C.3          1    LIG   0.0000
  34 C34         -0.0823    -5.4620    -1.3945 C.3          1    LIG   0.0000
  35 C35         -0.9831    -4.2283    -1.3921 C.3          1    LIG   0.0000
  36 H           -6.2507     0.5481    -2.0345 H            1    LIG   0.0000
  37 H           -5.5093     1.1574    -0.7132 H            1    LIG   0.0000
  38 H           -4.8122     1.3068    -2.1823 H            1    LIG   0.0000
  39 H           -3.5097     1.6348    -0.6227 H            1    LIG   0.0000
  40 H           -1.3539     1.7740     0.4134 H            1    LIG   0.0000
  41 H            0.5000     1.8660     0.9961 H            1    LIG   0.0000
  42 H            2.5816     3.0760     0.9903 H            1    LIG   0.0000
  43 H            4.9788     3.0681     0.9919 H            1    LIG   0.0000
  44 H            9.6805    -1.3986     1.0159 H            1    LIG   0.0000
  45 H           11.5752    -0.6629    -0.2248 H            1    LIG   0.0000
  46 H           10.2037    -0.3261    -1.0448 H            1    LIG   0.0000
  47 H           10.9804     0.8579    -0.2314 H            1    LIG   0.0000
  48 H           11.5712    -0.6538     2.2573 H            1    LIG   0.0000
  49 H           10.9764     0.8670     2.2508 H            1    LIG   0.0000
  50 H           10.1971    -0.3110     3.0703 H            1    LIG   0.0000
  51 H            4.9737    -1.0752     1.0073 H            1    LIG   0.0000
  52 H            2.5760    -1.0763     1.0098 H            1    LIG   0.0000
  53 H           -0.9580    -2.3490     0.1814 H            1    LIG   0.0000
  54 H           -2.9625    -4.6574     1.2419 H            1    LIG   0.0000
  55 H           -1.7872    -3.5284     1.1386 H            1    LIG   0.0000
  56 H           -1.2152    -6.3203     0.8398 H            1    LIG   0.0000
  57 H           -1.1764    -5.5901     2.2999 H            1    LIG   0.0000
  58 H            0.9577    -5.3781     1.7939 H            1    LIG   0.0000
  59 H            0.4141    -4.0190     1.0700 H            1    LIG   0.0000
  60 H            1.7157    -4.9194    -0.5219 H            1    LIG   0.0000
  61 H            1.2586    -6.4447    -0.1596 H            1    LIG   0.0000
  62 H            0.4088    -5.4876    -2.2653 H            1    LIG   0.0000
  63 H           -0.6633    -6.2721    -1.3156 H            1    LIG   0.0000
  64 H           -0.4744    -3.4675    -0.9890 H            1    LIG   0.0000
  65 H           -1.2181    -4.0077    -2.3387 H            1    LIG   0.0000
@<TRIPOS>BOND
   1        1        2 1
   2        2        3 1
   3        3        4 ar
   4        4        5 ar
   5        5        6 ar
   6        6        7 1
   7        7        8 2
   8        7        9 am
   9        9       10 1
  10       10       11 ar
  11       11       12 ar
  12       12       13 ar
  13       13       14 1
  14       14       15 2
  15       15       16 1
  16       16       17 1
  17       17       18 1
  18       17       19 1
  19       16       20 2
  20       20       21 1
  21       21       14 1
  22       13       22 ar
  23       22       23 ar
  24       23       10 ar
  25        6       24 ar
  26       24       25 ar
  27       25        3 ar
  28       25       26 1
  29       26       27 2
  30       26       28 2
  31       26       29 1
  32       29       30 1
  33       30       31 1
  34       31       32 1
  35       32       33 1
  36       33       34 1
  37       34       35 1
  38       35       29 1
  39        1       36 1
  40        1       37 1
  41        1       38 1
  42        4       39 1
  43        5       40 1
  44        9       41 1
  45       11       42 1
  46       12       43 1
  47       17       44 1
  48       18       45 1
  49       18       46 1
  50       18       47 1
  51       19       48 1
  52       19       49 1
  53       19       50 1
  54       22       51 1
  55       23       52 1
  56       24       53 1
  57       30       54 1
  58       30       55 1
  59       31       56 1
  60       31       57 1
  61       32       58 1
  62       32       59 1
  63       33       60 1
  64       33       61 1
  65       34       62 1
  66       34       63 1
  67       35       64 1
  68       35       65 1

@<TRIPOS>MOLECULE

  65   68
SMALL
USER_CHARGES
@<TRIPOS>ATOM
   1 C1          -5.1273    -1.8285    -1.7427 C.3          1    LIG   0.0000
   2 O2          -4.6950    -0.5188    -1.4045 O.3          1    LIG   0.0000
   3 C3          -3.4807    -0.4404    -0.8208 C.ar         1    LIG   0.0000
   4 C4          -2.7501    -1.6020    -0.5928 C.ar         1    LIG   0.0000
   5 C5          -1.4991    -1.5144     0.0097 C.ar         1    LIG   0.0000
   6 C6          -0.9895    -0.2734     0.3778 C.ar         1    LIG   0.0000
   7 C7           0.3150    -0.1864     1.0054 C.2          1    LIG   0.0000
   8 O8           0.7944    -1.1537     1.5294 O.2          1    LIG   0.0000
   9 N9           1.0000     1.0000     1.0000 N.am         1    LIG   0.0000
  10 C10          2.4002     1.0000     1.0000 C.ar         1    LIG   0.0000
  11 C11          3.0838     2.2112     0.9945 C.ar         1    LIG   0.0000
  12 C12          4.4746     2.2046     0.9949 C.ar         1    LIG   0.0000
  13 C13          5.1642     0.9958     0.9997 C.ar         1    LIG   0.0000
  14 C14          6.6150     0.9993     1.0006 C.2          1    LIG   0.0000
  15 N15          7.3778    -0.0665     1.0022 N.2          1    LIG   0.0000
  16 C16          8.6513     0.4084     1.0076 C.2          1    LIG   0.0000
  17 C17          9.9208    -0.4279     1.0127 C.3          1    LIG   0.0000
  18 C18         10.7401    -0.1128    -0.2282 C.3          1    LIG   0.0000
  19 C19         10.7361    -0.1037     2.2539 C.3          1    LIG   0.0000
  20 N20          8.5858     1.7152     1.0027 N.2          1    LIG   0.0000
  21 O21          7.3718     2.0695     0.9973 O.2          1    LIG   0.0000
  22 C22          4.4718    -0.2103     1.0045 C.ar         1    LIG   0.0000
  23 C23          3.0806    -0.2129     1.0054 C.ar         1    LIG   0.0000
  24 C24         -1.7172     0.8905     0.1511 C.ar         1    LIG   0.0000
  25 C25         -2.9673     0.7980    -0.4514 C.ar         1    LIG   0.0000
  26 S26         -3.8924     2.2415    -0.7448 S.o2         1    LIG   0.0000
  27 O27         -5.2302     2.0647    -0.2421 O.2          1    LIG   0.0000
  28 O28         -3.2710     3.3543    -0.0748 O.2          1    LIG   0.0000
  29 N29         -3.9530     2.5581    -2.4757 N.3          1    LIG   0.0000
  30 C30         -4.6756     1.4545    -3.1325 C.3          1    LIG   0.0000
  31 C31         -4.7431     1.5863    -4.6490 C.3          1    LIG   0.0000
  32 C32         -3.4164     1.2699    -5.3280 C.3          1    LIG   0.0000
  33 C33         -2.5299     2.4885    -5.5418 C.3          1    LIG   0.0000
  34 C34         -2.5796     3.4678    -4.3774 C.3          1    LIG   0.0000
  35 C35         -2.5969     2.8156    -2.9962 C.3          1    LIG   0.0000
  36 H           -6.0317    -1.7819    -2.1667 H            1    LIG   0.0000
  37 H           -4.4789    -2.2382    -2.3843 H            1    LIG   0.0000
  38 H           -5.1756    -2.3876    -0.9150 H            1    LIG   0.0000
  39 H           -3.1207    -2.4918    -0.8594 H            1    LIG   0.0000
  40 H           -0.9662    -2.3436     0.1781 H            1    LIG   0.0000
  41 H            0.5000     1.8660     0.9961 H            1    LIG   0.0000
  42 H            2.5816     3.0760     0.9903 H            1    LIG   0.0000
  43 H            4.9788     3.0681     0.9919 H            1    LIG   0.0000
  44 H            9.6805    -1.3986     1.0159 H            1    LIG   0.0000
  45 H           11.5752    -0.6629    -0.2248 H            1    LIG   0.0000
  46 H           10.2037    -0.3261    -1.0448 H            1    LIG   0.0000
  47 H           10.9804     0.8579    -0.2314 H            1    LIG   0.0000
  48 H           11.5712    -0.6538     2.2573 H            1    LIG   0.0000
  49 H           10.9764     0.8670     2.2508 H            1    LIG   0.0000
  50 H           10.1971    -0.3110     3.0703 H            1    LIG   0.0000
  51 H            4.9737    -1.0752     1.0073 H            1    LIG   0.0000
  52 H            2.5760    -1.0763     1.0098 H            1    LIG   0.0000
  53 H           -1.3469     1.7804     0.4174 H            1    LIG   0.0000
  54 H           -5.6094     1.4314    -2.7754 H            1    LIG   0.0000
  55 H           -4.2123     0.5967    -2.9101 H            1    LIG   0.0000
  56 H           -5.0031     2.5246    -4.8771 H            1    LIG   0.0000
  57 H           -5.4374     0.9548    -4.9942 H            1    LIG   0.0000
  58 H           -3.6084     0.8595    -6.2194 H            1    LIG   0.0000
  59 H           -2.9196     0.6145    -4.7593 H            1    LIG   0.0000
  60 H           -1.5860     2.1800    -5.6593 H            1    LIG   0.0000
  61 H           -2.8316     2.9614    -6.3696 H            1    LIG   0.0000
  62 H           -1.7749     4.0589    -4.4329 H            1    LIG   0.0000
  63 H           -3.4070     4.0215    -4.4710 H            1    LIG   0.0000
  64 H           -2.1104     1.9438    -3.0531 H            1    LIG   0.0000
  65 H           -2.1233     3.4205    -2.3561 H            1    LIG   0.0000
@<TRIPOS>BOND
   1        1        2 1
   2        2        3 1
   3        3        4 ar
   4        4        5 ar
   5        5        6 ar
   6        6        7 1
   7        7        8 2
   8        7        9 am
   9        9       10 1
  10       10       11 ar
  11       11       12 ar
  12       12       13 ar
  13       13       14 1
  14       14       15 2
  15       15       16 1
  16       16       17 1
  17       17       18 1
  18       17       19 1
  19       16       20 2
  20       20       21 1
  21       21       14 1
  22       13       22 ar
  23       22       23 ar
  24       23       10 ar
  25        6       24 ar
  26       24       25 ar
  27       25        3 ar
  28       25       26 1
  29       26       27 2
  30       26       28 2
  31       26       29 1
  32       29       30 1
  33       30       31 1
  34       31       32 1
  35       32       33 1
  36       33       34 1
  37       34       35 1
  38       35       29 1
  39        1       36 1
  40        1       37 1
  41        1       38 1
  42        4       39 1
  43        5       40 1
  44        9       41 1
  45       11       42 1
  46       12       43 1
  47       17       44 1
  48       18       45 1
  49       18       46 1
  50       18       47 1
  51       19       48 1
  52       19       49 1
  53       19       50 1
  54       22       51 1
  55       23       52 1
  56       24       53 1
  57       30       54 1
  58       30       55 1
  59       31       56 1
  60       31       57 1
  61       32       58 1
  62       32       59 1
  63       33       60 1
  64       33       61 1
  65       34       62 1
  66       34       63 1
  67       35       64 1
  68       35       65 1

@<TRIPOS>MOLECULE

  65   68
SMALL
USER_CHARGES
@<TRIPOS>ATOM
   1 C1          -5.1273    -1.8285    -1.7427 C.3          1    LIG   0.0000
   2 O2          -4.6950    -0.5188    -1.4045 O.3          1    LIG   0.0000
   3 C3          -3.4807    -0.4404    -0.8208 C.ar         1    LIG   0.0000
   4 C4          -2.7501    -1.6020    -0.5928 C.ar         1    LIG   0.0000
   5 C5          -1.4991    -1.5144     0.0097 C.ar         1    LIG   0.0000
   6 C6          -0.9895    -0.2734     0.3778 C.ar         1    LIG   0.0000
   7 C7           0.3150    -0.1864     1.0054 C.2          1    LIG   0.0000
   8 O8           0.7944    -1.1537     1.5294 O.2          1    LIG   0.0000
   9 N9           1.0000     1.0000     1.0000 N.am         1    LIG   0.0000
  10 C10          2.4002     1.0000     1.0000 C.ar         1    LIG   0.0000
  11 C11          3.0838     2.2112     0.9945 C.ar         1    LIG   0.0000
  12 C12          4.4746     2.2046     0.9949 C.ar         1    LIG   0.0000
  13 C13          5.1642     0.9958     0.9997 C.ar         1    LIG   0.0000
  14 C14          6.6150     0.9993     1.0006 C.2          1    LIG   0.0000
  15 N15          7.3778    -0.0665     1.0022 N.2          1    LIG   0.0000
  16 C16          8.6513     0.4084     1.0076 C.2          1    LIG   0.0000
  17 C17          9.9208    -0.4279     1.0127 C.3          1    LIG   0.0000
  18 C18         10.7401    -0.1128    -0.2282 C.3          1    LIG   0.0000
  19 C19         10.7361    -0.1037     2.2539 C.3          1    LIG   0.0000
  20 N20          8.5858     1.7152     1.0027 N.2          1    LIG   0.0000
  21 O21          7.3718     2.0695     0.9973 O.2          1    LIG   0.0000
  22 C22          4.4718    -0.2103     1.0045 C.ar         1    LIG   0.0000
  23 C23          3.0806    -0.2129     1.0054 C.ar         1    LIG   0.0000
  24 C24         -1.7172     0.8905     0.1511 C.ar         1    LIG   0.0000
  25 C25         -2.9673     0.7980    -0.4514 C.ar         1    LIG   0.0000
  26 S26         -3.8924     2.2415    -0.7448 S.o2         1    LIG   0.0000
  27 O27         -3.0695     3.3973    -0.4989 O.2          1    LIG   0.0000
  28 O28         -4.3412     2.2542    -2.1130 O.2          1    LIG   0.0000
  29 N29         -5.2863     2.2739     0.3304 N.3          1    LIG   0.0000
  30 C30         -4.8075     2.3565     1.7216 C.3          1    LIG   0.0000
  31 C31         -5.9272     2.3322     2.7548 C.3          1    LIG   0.0000
  32 C32         -6.5382     0.9475     2.9296 C.3          1    LIG   0.0000
  33 C33         -7.7400     0.6888     2.0324 C.3          1    LIG   0.0000
  34 C34         -7.5784     1.2840     0.6407 C.3          1    LIG   0.0000
  35 C35         -6.1805     1.1366     0.0427 C.3          1    LIG   0.0000
  36 H           -6.0317    -1.7819    -2.1667 H            1    LIG   0.0000
  37 H           -4.4789    -2.2382    -2.3843 H            1    LIG   0.0000
  38 H           -5.1756    -2.3876    -0.9150 H            1    LIG   0.0000
  39 H           -3.1207    -2.4918    -0.8594 H            1    LIG   0.0000
  40 H           -0.9662    -2.3436     0.1781 H            1    LIG   0.0000
  41 H            0.5000     1.8660     0.9961 H            1    LIG   0.0000
  42 H            2.5816     3.0760     0.9903 H            1    LIG   0.0000
  43 H            4.9788     3.0681     0.9919 H            1    LIG   0.0000
  44 H            9.6805    -1.3986     1.0159 H            1    LIG   0.0000
  45 H           11.5752    -0.6629    -0.2248 H            1    LIG   0.0000
  46 H           10.2037    -0.3261    -1.0448 H            1    LIG   0.0000
  47 H           10.9804     0.8579    -0.2314 H            1    LIG   0.0000
  48 H           11.5712    -0.6538     2.2573 H            1    LIG   0.0000
  49 H           10.9764     0.8670     2.2508 H            1    LIG   0.0000
  50 H           10.1971    -0.3110     3.0703 H            1    LIG   0.0000
  51 H            4.9737    -1.0752     1.0073 H            1    LIG   0.0000
  52 H            2.5760    -1.0763     1.0098 H            1    LIG   0.0000
  53 H           -1.3469     1.7804     0.4174 H            1    LIG   0.0000
  54 H           -4.2961     3.2090     1.8298 H            1    LIG   0.0000
  55 H           -4.2015     1.5800     1.8940 H            1    LIG   0.0000
  56 H           -6.6453     2.9639     2.4628 H            1    LIG   0.0000
  57 H           -5.5572     2.6317     3.6342 H            1    LIG   0.0000
  58 H           -6.8283     0.8488     3.8815 H            1    LIG   0.0000
  59 H           -5.8372     0.2651     2.7223 H            1    LIG   0.0000
  60 H           -7.8658    -0.2993     1.9443 H            1    LIG   0.0000
  61 H           -8.5498     1.0911     2.4595 H            1    LIG   0.0000
  62 H           -8.2278     0.8303     0.0305 H            1    LIG   0.0000
  63 H           -7.7942     2.2591     0.6919 H            1    LIG   0.0000
  64 H           -5.7645     0.3067     0.4145 H            1    LIG   0.0000
  65 H           -6.2698     1.0490    -0.9494 H            1    LIG   0.0000
@<TRIPOS>BOND
   1        1        2 1
   2        2        3 1
   3        3        4 ar
   4        4        5 ar
   5        5        6 ar
   6        6        7 1
   7        7        8 2
   8        7        9 am
   9        9       10 1
  10       10       11 ar
  11       11       12 ar
  12       12       13 ar
  13       13       14 1
  14       14       15 2
  15       15       16 1
  16       16       17 1
  17       17       18 1
  18       17       19 1
  19       16       20 2
  20       20       21 1
  21       21       14 1
  22       13       22 ar
  23       22       23 ar
  24       23       10 ar
  25        6       24 ar
  26       24       25 ar
  27       25        3 ar
  28       25       26 1
  29       26       27 2
  30       26       28 2
  31       26       29 1
  32       29       30 1
  33       30       31 1
  34       31       32 1
  35       32       33 1
  36       33       34 1
  37       34       35 1
  38       35       29 1
  39        1       36 1
  40        1       37 1
  41        1       38 1
  42        4       39 1
  43        5       40 1
  44        9       41 1
  45       11       42 1
  46       12       43 1
  47       17       44 1
  48       18       45 1
  49       18       46 1
  50       18       47 1
  51       19       48 1
  52       19       49 1
  53       19       50 1
  54       22       51 1
  55       23       52 1
  56       24       53 1
  57       30       54 1
  58       30       55 1
  59       31       56 1
  60       31       57 1
  61       32       58 1
  62       32       59 1
  63       33       60 1
  64       33       61 1
  65       34       62 1
  66       34       63 1
  67       35       64 1
  68       35       65 1

@<TRIPOS>MOLECULE

  65   68
SMALL
USER_CHARGES
@<TRIPOS>ATOM
   1 C1          -5.5061    -1.6062    -0.9861 C.3          1    LIG   0.0000
   2 O2          -4.6945    -0.5190    -1.4055 O.3          1    LIG   0.0000
   3 C3          -3.4810    -0.4402    -0.8203 C.ar         1    LIG   0.0000
   4 C4          -3.1088    -1.3919     0.1237 C.ar         1    LIG   0.0000
   5 C5          -1.8565    -1.3049     0.7236 C.ar         1    LIG   0.0000
   6 C6          -0.9895    -0.2734     0.3778 C.ar         1    LIG   0.0000
   7 C7           0.3150    -0.1864     1.0054 C.2          1    LIG   0.0000
   8 O8           0.7944    -1.1537     1.5294 O.2          1    LIG   0.0000
   9 N9           1.0000     1.0000     1.0000 N.am         1    LIG   0.0000
  10 C10          2.4002     1.0000     1.0000 C.ar         1    LIG   0.0000
  11 C11          3.0838     2.2112     0.9945 C.ar         1    LIG   0.0000
  12 C12          4.4746     2.2046     0.9949 C.ar         1    LIG   0.0000
  13 C13          5.1642     0.9958     0.9997 C.ar         1    LIG   0.0000
  14 C14          6.6150     0.9993     1.0006 C.2          1    LIG   0.0000
  15 N15          7.3778    -0.0665     1.0022 N.2          1    LIG   0.0000
  16 C16          8.6513     0.4084     1.0076 C.2          1    LIG   0.0000
  17 C17          9.9208    -0.4279     1.0127 C.3          1    LIG   0.0000
  18 C18         10.7401    -0.1128    -0.2282 C.3          1    LIG   0.0000
  19 C19         10.7361    -0.1037     2.2539 C.3          1    LIG   0.0000
  20 N20          8.5858     1.7152     1.0027 N.2          1    LIG   0.0000
  21 O21          7.3718     2.0695     0.9973 O.2          1    LIG   0.0000
  22 C22          4.4718    -0.2103     1.0045 C.ar         1    LIG   0.0000
  23 C23          3.0806    -0.2129     1.0054 C.ar         1    LIG   0.0000
  24 C24         -1.3582     0.6799    -0.5660 C.ar         1    LIG   0.0000
  25 C25         -2.6110     0.5889    -1.1631 C.ar         1    LIG   0.0000
  26 S26         -3.0904     1.7702    -2.3465 S.o2         1    LIG   0.0000
  27 O27         -3.3643     1.1123    -3.5978 O.2          1    LIG   0.0000
  28 O28         -4.2755     2.4507    -1.8926 O.2          1    LIG   0.0000
  29 N29         -1.7920     2.9382    -2.5693 N.3          1    LIG   0.0000
  30 C30         -0.6187     2.2398    -3.1235 C.3          1    LIG   0.0000
  31 C31          0.5969     3.1399    -3.3070 C.3          1    LIG   0.0000
  32 C32          1.2825     3.4808    -1.9898 C.3          1    LIG   0.0000
  33 C33          0.7774     4.7656    -1.3490 C.3          1    LIG   0.0000
  34 C34         -0.7259     4.9506    -1.4999 C.3          1    LIG   0.0000
  35 C35         -1.5469     3.6757    -1.3155 C.3          1    LIG   0.0000
  36 H           -6.3788    -1.5780    -1.4734 H            1    LIG   0.0000
  37 H           -5.0395    -2.4675    -1.1873 H            1    LIG   0.0000
  38 H           -5.6714    -1.5385    -0.0022 H            1    LIG   0.0000
  39 H           -3.7356    -2.1316     0.3688 H            1    LIG   0.0000
  40 H           -1.5797    -1.9839     1.4035 H            1    LIG   0.0000
  41 H            0.5000     1.8660     0.9961 H            1    LIG   0.0000
  42 H            2.5816     3.0760     0.9903 H            1    LIG   0.0000
  43 H            4.9788     3.0681     0.9919 H            1    LIG   0.0000
  44 H            9.6805    -1.3986     1.0159 H            1    LIG   0.0000
  45 H           11.5752    -0.6629    -0.2248 H            1    LIG   0.0000
  46 H           10.2037    -0.3261    -1.0448 H            1    LIG   0.0000
  47 H           10.9804     0.8579    -0.2314 H            1    LIG   0.0000
  48 H           11.5712    -0.6538     2.2573 H            1    LIG   0.0000
  49 H           10.9764     0.8670     2.2508 H            1    LIG   0.0000
  50 H           10.1971    -0.3110     3.0703 H            1    LIG   0.0000
  51 H            4.9737    -1.0752     1.0073 H            1    LIG   0.0000
  52 H            2.5760    -1.0763     1.0098 H            1    LIG   0.0000
  53 H           -0.7317     1.4197    -0.8115 H            1    LIG   0.0000
  54 H           -0.8683     1.8603    -4.0144 H            1    LIG   0.0000
  55 H           -0.3707     1.4965    -2.5022 H            1    LIG   0.0000
  56 H            0.3022     3.9901    -3.7433 H            1    LIG   0.0000
  57 H            1.2545     2.6725    -3.8980 H            1    LIG   0.0000
  58 H            2.2630     3.5779    -2.1605 H            1    LIG   0.0000
  59 H            1.1285     2.7277    -1.3501 H            1    LIG   0.0000
  60 H            1.0003     4.7453    -0.3744 H            1    LIG   0.0000
  61 H            1.2393     5.5405    -1.7806 H            1    LIG   0.0000
  62 H           -1.0278     5.6170    -0.8181 H            1    LIG   0.0000
  63 H           -0.9056     5.3071    -2.4167 H            1    LIG   0.0000
  64 H           -1.0562     3.0731    -0.6862 H            1    LIG   0.0000
  65 H           -2.4303     3.9243    -0.9183 H            1    LIG   0.0000
@<TRIPOS>BOND
   1        1        2 1
   2        2        3 1
   3        3        4 ar
   4        4        5 ar
   5        5        6 ar
   6        6        7 1
   7        7        8 2
   8        7        9 am
   9        9       10 1
  10       10       11 ar
  11       11       12 ar
  12       12       13 ar
  13       13       14 1
  14       14       15 2
  15       15       16 1
  16       16       17 1
  17       17       18 1
  18       17       19 1
  19       16       20 2
  20       20       21 1
  21       21       14 1
  22       13       22 ar
  23       22       23 ar
  24       23       10 ar
  25        6       24 ar
  26       24       25 ar
  27       25        3 ar
  28       25       26 1
  29       26       27 2
  30       26       28 2
  31       26       29 1
  32       29       30 1
  33       30       31 1
  34       31       32 1
  35       32       33 1
  36       33       34 1
  37       34       35 1
  38       35       29 1
  39        1       36 1
  40        1       37 1
  41        1       38 1
  42        4       39 1
  43        5       40 1
  44        9       41 1
  45       11       42 1
  46       12       43 1
  47       17       44 1
  48       18       45 1
  49       18       46 1
  50       18       47 1
  51       19       48 1
  52       19       49 1
  53       19       50 1
  54       22       51 1
  55       23       52 1
  56       24       53 1
  57       30       54 1
  58       30       55 1
  59       31       56 1
  60       31       57 1
  61       32       58 1
  62       32       59 1
  63       33       60 1
  64       33       61 1
  65       34       62 1
  66       34       63 1
  67       35       64 1
  68       35       65 1

@<TRIPOS>MOLECULE

  65   68
SMALL
USER_CHARGES
@<TRIPOS>ATOM
   1 C1          -4.8702    -1.5693     4.3322 C.3          1    LIG   0.0000
   2 O2          -4.6952    -0.4972     3.4177 O.3          1    LIG   0.0000
   3 C3          -3.4806    -0.4237     2.8341 C.ar         1    LIG   0.0000
   4 C4          -2.5071    -1.3661     3.1494 C.ar         1    LIG   0.0000
   5 C5          -1.2568    -1.2846     2.5446 C.ar         1    LIG   0.0000
   6 C6          -0.9895    -0.2677     1.6337 C.ar         1    LIG   0.0000
   7 C7           0.3150    -0.1864     1.0054 C.2          1    LIG   0.0000
   8 O8           0.7944    -1.1584     0.4902 O.2          1    LIG   0.0000
   9 N9           1.0000     1.0000     1.0000 N.am         1    LIG   0.0000
  10 C10          2.4002     1.0000     1.0000 C.ar         1    LIG   0.0000
  11 C11          3.0838     2.2112     0.9945 C.ar         1    LIG   0.0000
  12 C12          4.4746     2.2046     0.9949 C.ar         1    LIG   0.0000
  13 C13          5.1642     0.9958     0.9997 C.ar         1    LIG   0.0000
  14 C14          6.6150     0.9993     1.0006 C.2          1    LIG   0.0000
  15 N15          7.3778    -0.0665     1.0022 N.2          1    LIG   0.0000
  16 C16          8.6513     0.4084     1.0076 C.2          1    LIG   0.0000
  17 C17          9.9208    -0.4279     1.0127 C.3          1    LIG   0.0000
  18 C18         10.7401    -0.1128    -0.2282 C.3          1    LIG   0.0000
  19 C19         10.7361    -0.1037     2.2539 C.3          1    LIG   0.0000
  20 N20          8.5858     1.7152     1.0027 N.2          1    LIG   0.0000
  21 O21          7.3718     2.0695     0.9973 O.2          1    LIG   0.0000
  22 C22          4.4718    -0.2103     1.0045 C.ar         1    LIG   0.0000
  23 C23          3.0806    -0.2129     1.0054 C.ar         1    LIG   0.0000
  24 C24         -1.9606     0.6764     1.3158 C.ar         1    LIG   0.0000
  25 C25         -3.2090     0.5909     1.9228 C.ar         1    LIG   0.0000
  26 S26         -4.4374     1.7608     1.5379 S.o2         1    LIG   0.0000
  27 O27         -4.7269     1.7067     0.1283 O.2          1    LIG   0.0000
  28 O28         -5.6324     1.4656     2.2851 O.2          1    LIG   0.0000
  29 N29         -3.8658     3.3714     1.9579 N.3          1    LIG   0.0000
  30 C30         -2.4747     3.5483     1.5186 C.3          1    LIG   0.0000
  31 C31         -1.7635     4.7397     2.1538 C.3          1    LIG   0.0000
  32 C32         -1.8778     6.0385     1.3681 C.3          1    LIG   0.0000
  33 C33         -3.2556     6.2819     0.7648 C.3          1    LIG   0.0000
  34 C34         -4.3968     5.8070     1.6537 C.3          1    LIG   0.0000
  35 C35         -4.8051     4.3604     1.3980 C.3          1    LIG   0.0000
  36 H           -5.7960    -1.5384     4.7090 H            1    LIG   0.0000
  37 H           -4.7326    -2.4384     3.8572 H            1    LIG   0.0000
  38 H           -4.2053    -1.4862     5.0745 H            1    LIG   0.0000
  39 H           -2.7042    -2.0954     3.8047 H            1    LIG   0.0000
  40 H           -0.5503    -1.9572     2.7647 H            1    LIG   0.0000
  41 H            0.5000     1.8660     0.9961 H            1    LIG   0.0000
  42 H            2.5816     3.0760     0.9903 H            1    LIG   0.0000
  43 H            4.9788     3.0681     0.9919 H            1    LIG   0.0000
  44 H            9.6805    -1.3986     1.0159 H            1    LIG   0.0000
  45 H           11.5752    -0.6629    -0.2248 H            1    LIG   0.0000
  46 H           10.2037    -0.3261    -1.0448 H            1    LIG   0.0000
  47 H           10.9804     0.8579    -0.2314 H            1    LIG   0.0000
  48 H           11.5712    -0.6538     2.2573 H            1    LIG   0.0000
  49 H           10.9764     0.8670     2.2508 H            1    LIG   0.0000
  50 H           10.1971    -0.3110     3.0703 H            1    LIG   0.0000
  51 H            4.9737    -1.0752     1.0073 H            1    LIG   0.0000
  52 H            2.5760    -1.0763     1.0098 H            1    LIG   0.0000
  53 H           -1.7640     1.4057     0.6605 H            1    LIG   0.0000
  54 H           -2.4730     3.6747     0.5267 H            1    LIG   0.0000
  55 H           -1.9653     2.7194     1.7499 H            1    LIG   0.0000
  56 H           -0.7936     4.5130     2.2423 H            1    LIG   0.0000
  57 H           -2.1551     4.8889     3.0618 H            1    LIG   0.0000
  58 H           -1.2091     6.0158     0.6249 H            1    LIG   0.0000
  59 H           -1.6661     6.7976     1.9838 H            1    LIG   0.0000
  60 H           -3.3638     7.2634     0.6071 H            1    LIG   0.0000
  61 H           -3.3100     5.7962    -0.1077 H            1    LIG   0.0000
  62 H           -4.1107     5.8912     2.6082 H            1    LIG   0.0000
  63 H           -5.1902     6.3934     1.4906 H            1    LIG   0.0000
  64 H           -5.7044     4.2091     1.8081 H            1    LIG   0.0000
  65 H           -4.8612     4.2183     0.4097 H            1    LIG   0.0000
@<TRIPOS>BOND
   1        1        2 1
   2        2        3 1
   3        3        4 ar
   4        4        5 ar
   5        5        6 ar
   6        6        7 1
   7        7        8 2
   8        7        9 am
   9        9       10 1
  10       10       11 ar
  11       11       12 ar
  12       12       13 ar
  13       13       14 1
  14       14       15 2
  15       15       16 1
  16       16       17 1
  17       17       18 1
  18       17       19 1
  19       16       20 2
  20       20       21 1
  21       21       14 1
  22       13       22 ar
  23       22       23 ar
  24       23       10 ar
  25        6       24 ar
  26       24       25 ar
  27       25        3 ar
  28       25       26 1
  29       26       27 2
  30       26       28 2
  31       26       29 1
  32       29       30 1
  33       30       31 1
  34       31       32 1
  35       32       33 1
  36       33       34 1
  37       34       35 1
  38       35       29 1
  39        1       36 1
  40        1       37 1
  41        1       38 1
  42        4       39 1
  43        5       40 1
  44        9       41 1
  45       11       42 1
  46       12       43 1
  47       17       44 1
  48       18       45 1
  49       18       46 1
  50       18       47 1
  51       19       48 1
  52       19       49 1
  53       19       50 1
  54       22       51 1
  55       23       52 1
  56       24       53 1
  57       30       54 1
  58       30       55 1
  59       31       56 1
  60       31       57 1
  61       32       58 1
  62       32       59 1
  63       33       60 1
  64       33       61 1
  65       34       62 1
  66       34       63 1
  67       35       64 1
  68       35       65 1

@<TRIPOS>MOLECULE

  65   68
SMALL
USER_CHARGES
@<TRIPOS>ATOM
   1 C1          -5.5461     0.6171     3.2119 C.3          1    LIG   0.0000
   2 O2          -4.6945    -0.5002     3.4189 O.3          1    LIG   0.0000
   3 C3          -3.4810    -0.4222     2.8334 C.ar         1    LIG   0.0000
   4 C4          -3.1467     0.7048     2.0895 C.ar         1    LIG   0.0000
   5 C5          -1.8943     0.7789     1.4881 C.ar         1    LIG   0.0000
   6 C6          -0.9895    -0.2677     1.6337 C.ar         1    LIG   0.0000
   7 C7           0.3150    -0.1864     1.0054 C.2          1    LIG   0.0000
   8 O8           0.7944    -1.1584     0.4902 O.2          1    LIG   0.0000
   9 N9           1.0000     1.0000     1.0000 N.am         1    LIG   0.0000
  10 C10          2.4002     1.0000     1.0000 C.ar         1    LIG   0.0000
  11 C11          3.0838     2.2112     0.9945 C.ar         1    LIG   0.0000
  12 C12          4.4746     2.2046     0.9949 C.ar         1    LIG   0.0000
  13 C13          5.1642     0.9958     0.9997 C.ar         1    LIG   0.0000
  14 C14          6.6150     0.9993     1.0006 C.2          1    LIG   0.0000
  15 N15          7.3778    -0.0665     1.0022 N.2          1    LIG   0.0000
  16 C16          8.6513     0.4084     1.0076 C.2          1    LIG   0.0000
  17 C17          9.9208    -0.4279     1.0127 C.3          1    LIG   0.0000
  18 C18         11.1323     0.4901     1.0113 C.3          1    LIG   0.0000
  19 C19          9.9477    -1.3004     2.2571 C.3          1    LIG   0.0000
  20 N20          8.5858     1.7152     1.0027 N.2          1    LIG   0.0000
  21 O21          7.3718     2.0695     0.9973 O.2          1    LIG   0.0000
  22 C22          4.4718    -0.2103     1.0045 C.ar         1    LIG   0.0000
  23 C23          3.0806    -0.2129     1.0054 C.ar         1    LIG   0.0000
  24 C24         -1.3203    -1.3962     2.3772 C.ar         1    LIG   0.0000
  25 C25         -2.5733    -1.4658     2.9765 C.ar         1    LIG   0.0000
  26 S26         -3.0058    -2.8676     3.9113 S.o2         1    LIG   0.0000
  27 O27         -2.5163    -4.0520     3.2548 O.2          1    LIG   0.0000
  28 O28         -2.4200    -2.7691     5.2231 O.2          1    LIG   0.0000
  29 N29         -4.7573    -2.9585     4.0562 N.3          1    LIG   0.0000
  30 C30         -5.3678    -3.1540     2.7341 C.3          1    LIG   0.0000
  31 C31         -6.8665    -2.8697     2.6874 C.3          1    LIG   0.0000
  32 C32         -7.7497    -4.0793     2.9596 C.3          1    LIG   0.0000
  33 C33         -7.2399    -4.9841     4.0745 C.3          1    LIG   0.0000
  34 C34         -6.5887    -4.2222     5.2206 C.3          1    LIG   0.0000
  35 C35         -5.0904    -4.0095     5.0353 C.3          1    LIG   0.0000
  36 H           -6.4155     0.4652     3.6820 H            1    LIG   0.0000
  37 H           -5.1101     1.4404     3.5752 H            1    LIG   0.0000
  38 H           -5.7124     0.7325     2.2326 H            1    LIG   0.0000
  39 H           -3.8005     1.4546     1.9879 H            1    LIG   0.0000
  40 H           -1.6445     1.5846     0.9511 H            1    LIG   0.0000
  41 H            0.5000     1.8660     0.9961 H            1    LIG   0.0000
  42 H            2.5816     3.0760     0.9903 H            1    LIG   0.0000
  43 H            4.9788     3.0681     0.9919 H            1    LIG   0.0000
  44 H            9.9412    -1.0079     0.1984 H            1    LIG   0.0000
  45 H           11.9674    -0.0600     1.0147 H            1    LIG   0.0000
  46 H           11.1146     1.0642     0.1927 H            1    LIG   0.0000
  47 H           11.1120     1.0702     1.8257 H            1    LIG   0.0000
  48 H           10.7828    -1.8505     2.2604 H            1    LIG   0.0000
  49 H            9.9274    -0.7204     3.0714 H            1    LIG   0.0000
  50 H            9.1507    -1.9043     2.2580 H            1    LIG   0.0000
  51 H            4.9737    -1.0752     1.0073 H            1    LIG   0.0000
  52 H            2.5760    -1.0763     1.0098 H            1    LIG   0.0000
  53 H           -0.6667    -2.1462     2.4791 H            1    LIG   0.0000
  54 H           -5.2203    -4.1038     2.4581 H            1    LIG   0.0000
  55 H           -4.9128    -2.5439     2.0854 H            1    LIG   0.0000
  56 H           -7.0893    -2.5191     1.7778 H            1    LIG   0.0000
  57 H           -7.0730    -2.1719     3.3733 H            1    LIG   0.0000
  58 H           -7.8103    -4.6191     2.1200 H            1    LIG   0.0000
  59 H           -8.6605    -3.7525     3.2122 H            1    LIG   0.0000
  60 H           -8.0122    -5.5049     4.4383 H            1    LIG   0.0000
  61 H           -6.5656    -5.6136     3.6886 H            1    LIG   0.0000
  62 H           -7.0285    -3.3274     5.2963 H            1    LIG   0.0000
  63 H           -6.7332    -4.7372     6.0656 H            1    LIG   0.0000
  64 H           -4.6961    -3.7546     5.9183 H            1    LIG   0.0000
  65 H           -4.6853    -4.8696     4.7253 H            1    LIG   0.0000
@<TRIPOS>BOND
   1        1        2 1
   2        2        3 1
   3        3        4 ar
   4        4        5 ar
   5        5        6 ar
   6        6        7 1
   7        7        8 2
   8        7        9 am
   9        9       10 1
  10       10       11 ar
  11       11       12 ar
  12       12       13 ar
  13       13       14 1
  14       14       15 2
  15       15       16 1
  16       16       17 1
  17       17       18 1
  18       17       19 1
  19       16       20 2
  20       20       21 1
  21       21       14 1
  22       13       22 ar
  23       22       23 ar
  24       23       10 ar
  25        6       24 ar
  26       24       25 ar
  27       25        3 ar
  28       25       26 1
  29       26       27 2
  30       26       28 2
  31       26       29 1
  32       29       30 1
  33       30       31 1
  34       31       32 1
  35       32       33 1
  36       33       34 1
  37       34       35 1
  38       35       29 1
  39        1       36 1
  40        1       37 1
  41        1       38 1
  42        4       39 1
  43        5       40 1
  44        9       41 1
  45       11       42 1
  46       12       43 1
  47       17       44 1
  48       18       45 1
  49       18       46 1
  50       18       47 1
  51       19       48 1
  52       19       49 1
  53       19       50 1
  54       22       51 1
  55       23       52 1
  56       24       53 1
  57       30       54 1
  58       30       55 1
  59       31       56 1
  60       31       57 1
  61       32       58 1
  62       32       59 1
  63       33       60 1
  64       33       61 1
  65       34       62 1
  66       34       63 1
  67       35       64 1
  68       35       65 1

@<TRIPOS>MOLECULE

  65   68
SMALL
USER_CHARGES
@<TRIPOS>ATOM
   1 C1          -5.3662     0.7376     3.6008 C.3          1    LIG   0.0000
   2 O2          -4.6945    -0.5002     3.4189 O.3          1    LIG   0.0000
   3 C3          -3.4810    -0.4222     2.8334 C.ar         1    LIG   0.0000
   4 C4          -3.1467     0.7048     2.0895 C.ar         1    LIG   0.0000
   5 C5          -1.8943     0.7789     1.4881 C.ar         1    LIG   0.0000
   6 C6          -0.9895    -0.2677     1.6337 C.ar         1    LIG   0.0000
   7 C7           0.3150    -0.1864     1.0054 C.2          1    LIG   0.0000
   8 O8           0.7944    -1.1584     0.4902 O.2          1    LIG   0.0000
   9 N9           1.0000     1.0000     1.0000 N.am         1    LIG   0.0000
  10 C10          2.4002     1.0000     1.0000 C.ar         1    LIG   0.0000
  11 C11          3.0838     2.2112     0.9945 C.ar         1    LIG   0.0000
  12 C12          4.4746     2.2046     0.9949 C.ar         1    LIG   0.0000
  13 C13          5.1642     0.9958     0.9997 C.ar         1    LIG   0.0000
  14 C14          6.6150     0.9993     1.0006 C.2          1    LIG   0.0000
  15 N15          7.3778    -0.0665     1.0022 N.2          1    LIG   0.0000
  16 C16          8.6513     0.4084     1.0076 C.2          1    LIG   0.0000
  17 C17          9.9208    -0.4279     1.0127 C.3          1    LIG   0.0000
  18 C18         11.1323     0.4901     1.0113 C.3          1    LIG   0.0000
  19 C19          9.9477    -1.3004     2.2571 C.3          1    LIG   0.0000
  20 N20          8.5858     1.7152     1.0027 N.2          1    LIG   0.0000
  21 O21          7.3718     2.0695     0.9973 O.2          1    LIG   0.0000
  22 C22          4.4718    -0.2103     1.0045 C.ar         1    LIG   0.0000
  23 C23          3.0806    -0.2129     1.0054 C.ar         1    LIG   0.0000
  24 C24         -1.3203    -1.3962     2.3772 C.ar         1    LIG   0.0000
  25 C25         -2.5733    -1.4658     2.9765 C.ar         1    LIG   0.0000
  26 S26         -3.0058    -2.8676     3.9113 S.o2         1    LIG   0.0000
  27 O27         -4.4286    -3.0754     3.8347 O.2          1    LIG   0.0000
  28 O28         -2.3231    -4.0226     3.3883 O.2          1    LIG   0.0000
  29 N29         -2.5386    -2.6202     5.5900 N.3          1    LIG   0.0000
  30 C30         -3.6237    -1.8580     6.2456 C.3          1    LIG   0.0000
  31 C31         -3.3244    -1.2456     7.6061 C.3          1    LIG   0.0000
  32 C32         -2.3331    -0.0931     7.5611 C.3          1    LIG   0.0000
  33 C33         -0.8912    -0.5607     7.7091 C.3          1    LIG   0.0000
  34 C34         -0.5744    -1.8721     6.9919 C.3          1    LIG   0.0000
  35 C35         -1.2161    -1.9726     5.6152 C.3          1    LIG   0.0000
  36 H           -6.2503     0.5759     4.0391 H            1    LIG   0.0000
  37 H           -4.8118     1.3359     4.1794 H            1    LIG   0.0000
  38 H           -5.5094     1.1729     2.7119 H            1    LIG   0.0000
  39 H           -3.8005     1.4546     1.9879 H            1    LIG   0.0000
  40 H           -1.6445     1.5846     0.9511 H            1    LIG   0.0000
  41 H            0.5000     1.8660     0.9961 H            1    LIG   0.0000
  42 H            2.5816     3.0760     0.9903 H            1    LIG   0.0000
  43 H            4.9788     3.0681     0.9919 H            1    LIG   0.0000
  44 H            9.9412    -1.0079     0.1984 H            1    LIG   0.0000
  45 H           11.9674    -0.0600     1.0147 H            1    LIG   0.0000
  46 H           11.1146     1.0642     0.1927 H            1    LIG   0.0000
  47 H           11.1120     1.0702     1.8257 H            1    LIG   0.0000
  48 H           10.7828    -1.8505     2.2604 H            1    LIG   0.0000
  49 H            9.9274    -0.7204     3.0714 H            1    LIG   0.0000
  50 H            9.1507    -1.9043     2.2580 H            1    LIG   0.0000
  51 H            4.9737    -1.0752     1.0073 H            1    LIG   0.0000
  52 H            2.5760    -1.0763     1.0098 H            1    LIG   0.0000
  53 H           -0.6667    -2.1462     2.4791 H            1    LIG   0.0000
  54 H           -4.3997    -2.4783     6.3598 H            1    LIG   0.0000
  55 H           -3.8806    -1.1123     5.6308 H            1    LIG   0.0000
  56 H           -2.9494    -1.9600     8.1969 H            1    LIG   0.0000
  57 H           -4.1818    -0.9079     7.9944 H            1    LIG   0.0000
  58 H           -2.5432     0.5404     8.3058 H            1    LIG   0.0000
  59 H           -2.4292     0.3790     6.6848 H            1    LIG   0.0000
  60 H           -0.2927     0.1500     7.3395 H            1    LIG   0.0000
  61 H           -0.7009    -0.6835     8.6831 H            1    LIG   0.0000
  62 H            0.4174    -1.9451     6.8863 H            1    LIG   0.0000
  63 H           -0.9065    -2.6299     7.5535 H            1    LIG   0.0000
  64 H           -1.3174    -1.0464     5.2520 H            1    LIG   0.0000
  65 H           -0.6027    -2.4970     5.0247 H            1    LIG   0.0000
@<TRIPOS>BOND
   1        1        2 1
   2        2        3 1
   3        3        4 ar
   4        4        5 ar
   5        5        6 ar
   6        6        7 1
   7        7        8 2
   8        7        9 am
   9        9       10 1
  10       10       11 ar
  11       11       12 ar
  12       12       13 ar
  13       13       14 1
  14       14       15 2
  15       15       16 1
  16       16       17 1
  17       17       18 1
  18       17       19 1
  19       16       20 2
  20       20       21 1
  21       21       14 1
  22       13       22 ar
  23       22       23 ar
  24       23       10 ar
  25        6       24 ar
  26       24       25 ar
  27       25        3 ar
  28       25       26 1
  29       26       27 2
  30       26       28 2
  31       26       29 1
  32       29       30 1
  33       30       31 1
  34       31       32 1
  35       32       33 1
  36       33       34 1
  37       34       35 1
  38       35       29 1
  39        1       36 1
  40        1       37 1
  41        1       38 1
  42        4       39 1
  43        5       40 1
  44        9       41 1
  45       11       42 1
  46       12       43 1
  47       17       44 1
  48       18       45 1
  49       18       46 1
  50       18       47 1
  51       19       48 1
  52       19       49 1
  53       19       50 1
  54       22       51 1
  55       23       52 1
  56       24       53 1
  57       30       54 1
  58       30       55 1
  59       31       56 1
  60       31       57 1
  61       32       58 1
  62       32       59 1
  63       33       60 1
  64       33       61 1
  65       34       62 1
  66       34       63 1
  67       35       64 1
  68       35       65 1

@<TRIPOS>MOLECULE

  65   68
SMALL
USER_CHARGES
@<TRIPOS>ATOM
   1 C1          -5.5874    -1.4484     2.8584 C.3          1    LIG   0.0000
   2 O2          -4.6942    -0.4980     3.4199 O.3          1    LIG   0.0000
   3 C3          -3.4811    -0.4233     2.8330 C.ar         1    LIG   0.0000
   4 C4          -3.3105    -0.9092     1.5407 C.ar         1    LIG   0.0000
   5 C5          -2.0574    -0.8295     0.9414 C.ar         1    LIG   0.0000
   6 C6          -0.9895    -0.2677     1.6337 C.ar         1    LIG   0.0000
   7 C7           0.3150    -0.1864     1.0054 C.2          1    LIG   0.0000
   8 O8           0.7944    -1.1584     0.4902 O.2          1    LIG   0.0000
   9 N9           1.0000     1.0000     1.0000 N.am         1    LIG   0.0000
  10 C10          2.4002     1.0000     1.0000 C.ar         1    LIG   0.0000
  11 C11          3.0838     2.2112     0.9945 C.ar         1    LIG   0.0000
  12 C12          4.4746     2.2046     0.9949 C.ar         1    LIG   0.0000
  13 C13          5.1642     0.9958     0.9997 C.ar         1    LIG   0.0000
  14 C14          6.6150     0.9993     1.0006 C.2          1    LIG   0.0000
  15 N15          7.3778    -0.0665     1.0022 N.2          1    LIG   0.0000
  16 C16          8.6513     0.4084     1.0076 C.2          1    LIG   0.0000
  17 C17          9.9208    -0.4279     1.0127 C.3          1    LIG   0.0000
  18 C18         11.0255     0.3324     1.7283 C.3          1    LIG   0.0000
  19 C19          9.6600    -1.7403     1.7337 C.3          1    LIG   0.0000
  20 N20          8.5858     1.7152     1.0027 N.2          1    LIG   0.0000
  21 O21          7.3718     2.0695     0.9973 O.2          1    LIG   0.0000
  22 C22          4.4718    -0.2103     1.0045 C.ar         1    LIG   0.0000
  23 C23          3.0806    -0.2129     1.0054 C.ar         1    LIG   0.0000
  24 C24         -1.1565     0.2194     2.9262 C.ar         1    LIG   0.0000
  25 C25         -2.4109     0.1377     3.5211 C.ar         1    LIG   0.0000
  26 S26         -2.6409     0.7423     5.1358 S.o2         1    LIG   0.0000
  27 O27         -1.4714     1.4763     5.5446 O.2          1    LIG   0.0000
  28 O28         -3.7879     1.6125     5.1637 O.2          1    LIG   0.0000
  29 N29         -2.9010    -0.6066     6.2358 N.3          1    LIG   0.0000
  30 C30         -1.7031    -1.4557     6.2921 C.3          1    LIG   0.0000
  31 C31         -1.9400    -2.8343     6.9020 C.3          1    LIG   0.0000
  32 C32         -1.7163    -2.9088     8.4060 C.3          1    LIG   0.0000
  33 C33         -2.2389    -1.7009     9.1736 C.3          1    LIG   0.0000
  34 C34         -3.5355    -1.1394     8.6065 C.3          1    LIG   0.0000
  35 C35         -3.3204    -0.0684     7.5429 C.3          1    LIG   0.0000
  36 H           -6.4531    -1.4283     3.3586 H            1    LIG   0.0000
  37 H           -5.7522    -1.2241     1.8979 H            1    LIG   0.0000
  38 H           -5.1860    -2.3620     2.9232 H            1    LIG   0.0000
  39 H           -4.0813    -1.3119     1.0471 H            1    LIG   0.0000
  40 H           -1.9244    -1.1761     0.0129 H            1    LIG   0.0000
  41 H            0.5000     1.8660     0.9961 H            1    LIG   0.0000
  42 H            2.5816     3.0760     0.9903 H            1    LIG   0.0000
  43 H            4.9788     3.0681     0.9919 H            1    LIG   0.0000
  44 H           10.2007    -0.6147     0.0711 H            1    LIG   0.0000
  45 H           11.8606    -0.2177     1.7316 H            1    LIG   0.0000
  46 H           11.1971     1.1959     1.2540 H            1    LIG   0.0000
  47 H           10.7456     0.5193     2.6699 H            1    LIG   0.0000
  48 H           10.4951    -2.2905     1.7370 H            1    LIG   0.0000
  49 H            9.3801    -1.5535     2.6753 H            1    LIG   0.0000
  50 H            8.9332    -2.2405     1.2629 H            1    LIG   0.0000
  51 H            4.9737    -1.0752     1.0073 H            1    LIG   0.0000
  52 H            2.5760    -1.0763     1.0098 H            1    LIG   0.0000
  53 H           -0.3860     0.6224     3.4200 H            1    LIG   0.0000
  54 H           -1.0111    -0.9854     6.8398 H            1    LIG   0.0000
  55 H           -1.3628    -1.5797     5.3600 H            1    LIG   0.0000
  56 H           -1.3175    -3.4814     6.4617 H            1    LIG   0.0000
  57 H           -2.8853    -3.1004     6.7138 H            1    LIG   0.0000
  58 H           -0.7335    -2.9863     8.5738 H            1    LIG   0.0000
  59 H           -2.1789    -3.7250     8.7521 H            1    LIG   0.0000
  60 H           -2.3995    -1.9733    10.1223 H            1    LIG   0.0000
  61 H           -1.5436    -0.9827     9.1462 H            1    LIG   0.0000
  62 H           -4.0543    -1.8908     8.1987 H            1    LIG   0.0000
  63 H           -4.0621    -0.7393     9.3566 H            1    LIG   0.0000
  64 H           -4.1785     0.4298     7.4185 H            1    LIG   0.0000
  65 H           -2.6136     0.5606     7.8667 H            1    LIG   0.0000
@<TRIPOS>BOND
   1        1        2 1
   2        2        3 1
   3        3        4 ar
   4        4        5 ar
   5        5        6 ar
   6        6        7 1
   7        7        8 2
   8        7        9 am
   9        9       10 1
  10       10       11 ar
  11       11       12 ar
  12       12       13 ar
  13       13       14 1
  14       14       15 2
  15       15       16 1
  16       16       17 1
  17       17       18 1
  18       17       19 1
  19       16       20 2
  20       20       21 1
  21       21       14 1
  22       13       22 ar
  23       22       23 ar
  24       23       10 ar
  25        6       24 ar
  26       24       25 ar
  27       25        3 ar
  28       25       26 1
  29       26       27 2
  30       26       28 2
  31       26       29 1
  32       29       30 1
  33       30       31 1
  34       31       32 1
  35       32       33 1
  36       33       34 1
  37       34       35 1
  38       35       29 1
  39        1       36 1
  40        1       37 1
  41        1       38 1
  42        4       39 1
  43        5       40 1
  44        9       41 1
  45       11       42 1
  46       12       43 1
  47       17       44 1
  48       18       45 1
  49       18       46 1
  50       18       47 1
  51       19       48 1
  52       19       49 1
  53       19       50 1
  54       22       51 1
  55       23       52 1
  56       24       53 1
  57       30       54 1
  58       30       55 1
  59       31       56 1
  60       31       57 1
  61       32       58 1
  62       32       59 1
  63       33       60 1
  64       33       61 1
  65       34       62 1
  66       34       63 1
  67       35       64 1
  68       35       65 1

@<TRIPOS>MOLECULE

  65   68
SMALL
USER_CHARGES
@<TRIPOS>ATOM
   1 C1          -5.1270    -1.8034     3.7688 C.3          1    LIG   0.0000
   2 O2          -4.6949    -0.4969     3.4185 O.3          1    LIG   0.0000
   3 C3          -3.4808    -0.4238     2.8337 C.ar         1    LIG   0.0000
   4 C4          -2.7504    -1.5875     2.6158 C.ar         1    LIG   0.0000
   5 C5          -1.4992    -1.5053     2.0129 C.ar         1    LIG   0.0000
   6 C6          -0.9895    -0.2677     1.6337 C.ar         1    LIG   0.0000
   7 C7           0.3150    -0.1864     1.0054 C.2          1    LIG   0.0000
   8 O8           0.7944    -1.1584     0.4902 O.2          1    LIG   0.0000
   9 N9           1.0000     1.0000     1.0000 N.am         1    LIG   0.0000
  10 C10          2.4002     1.0000     1.0000 C.ar         1    LIG   0.0000
  11 C11          3.0838     2.2112     0.9945 C.ar         1    LIG   0.0000
  12 C12          4.4746     2.2046     0.9949 C.ar         1    LIG   0.0000
  13 C13          5.1642     0.9958     0.9997 C.ar         1    LIG   0.0000
  14 C14          6.6150     0.9993     1.0006 C.2          1    LIG   0.0000
  15 N15          7.3778    -0.0665     1.0022 N.2          1    LIG   0.0000
  16 C16          8.6513     0.4084     1.0076 C.2          1    LIG   0.0000
  17 C17          9.9208    -0.4279     1.0127 C.3          1    LIG   0.0000
  18 C18         11.0255     0.3324     1.7283 C.3          1    LIG   0.0000
  19 C19          9.6600    -1.7403     1.7337 C.3          1    LIG   0.0000
  20 N20          8.5858     1.7152     1.0027 N.2          1    LIG   0.0000
  21 O21          7.3718     2.0695     0.9973 O.2          1    LIG   0.0000
  22 C22          4.4718    -0.2103     1.0045 C.ar         1    LIG   0.0000
  23 C23          3.0806    -0.2129     1.0054 C.ar         1    LIG   0.0000
  24 C24         -1.7172     0.8982     1.8499 C.ar         1    LIG   0.0000
  25 C25         -2.9675     0.8111     2.4529 C.ar         1    LIG   0.0000
  26 S26         -3.8937     2.2570     2.7307 S.o2         1    LIG   0.0000
  27 O27         -4.3444     2.2829     4.0981 O.2          1    LIG   0.0000
  28 O28         -3.0711     3.4107     2.4745 O.2          1    LIG   0.0000
  29 N29         -5.2855     2.2780     1.6539 N.3          1    LIG   0.0000
  30 C30         -6.1858     1.1589     1.9640 C.3          1    LIG   0.0000
  31 C31         -7.2084     0.8560     0.8724 C.3          1    LIG   0.0000
  32 C32         -8.5327     1.5915     1.0229 C.3          1    LIG   0.0000
  33 C33         -8.3924     3.0406     1.4726 C.3          1    LIG   0.0000
  34 C34         -7.1757     3.7409     0.8832 C.3          1    LIG   0.0000
  35 C35         -5.9218     3.6053     1.7400 C.3          1    LIG   0.0000
  36 H           -6.0313    -1.7530     4.1926 H            1    LIG   0.0000
  37 H           -5.1755    -2.3702     2.9463 H            1    LIG   0.0000
  38 H           -4.4785    -2.2072     4.4140 H            1    LIG   0.0000
  39 H           -3.1212    -2.4749     2.8900 H            1    LIG   0.0000
  40 H           -0.9662    -2.3361     1.8520 H            1    LIG   0.0000
  41 H            0.5000     1.8660     0.9961 H            1    LIG   0.0000
  42 H            2.5816     3.0760     0.9903 H            1    LIG   0.0000
  43 H            4.9788     3.0681     0.9919 H            1    LIG   0.0000
  44 H           10.2007    -0.6147     0.0711 H            1    LIG   0.0000
  45 H           11.8606    -0.2177     1.7316 H            1    LIG   0.0000
  46 H           11.1971     1.1959     1.2540 H            1    LIG   0.0000
  47 H           10.7456     0.5193     2.6699 H            1    LIG   0.0000
  48 H           10.4951    -2.2905     1.7370 H            1    LIG   0.0000
  49 H            9.3801    -1.5535     2.6753 H            1    LIG   0.0000
  50 H            8.9332    -2.2405     1.2629 H            1    LIG   0.0000
  51 H            4.9737    -1.0752     1.0073 H            1    LIG   0.0000
  52 H            2.5760    -1.0763     1.0098 H            1    LIG   0.0000
  53 H           -1.3468     1.7857     1.5757 H            1    LIG   0.0000
  54 H           -6.6807     1.3786     2.8047 H            1    LIG   0.0000
  55 H           -5.6300     0.3403     2.1086 H            1    LIG   0.0000
  56 H           -7.3943    -0.1265     0.8832 H            1    LIG   0.0000
  57 H           -6.8088     1.1100    -0.0084 H            1    LIG   0.0000
  58 H           -9.0868     1.1054     1.6986 H            1    LIG   0.0000
  59 H           -8.9999     1.5810     0.1388 H            1    LIG   0.0000
  60 H           -9.2122     3.5401     1.1929 H            1    LIG   0.0000
  61 H           -8.3158     3.0572     2.4695 H            1    LIG   0.0000
  62 H           -6.9885     3.3466    -0.0165 H            1    LIG   0.0000
  63 H           -7.3874     4.7131     0.7836 H            1    LIG   0.0000
  64 H           -5.2597     4.2927     1.4415 H            1    LIG   0.0000
  65 H           -6.1712     3.7745     2.6935 H            1    LIG   0.0000
@<TRIPOS>BOND
   1        1        2 1
   2        2        3 1
   3        3        4 ar
   4        4        5 ar
   5        5        6 ar
   6        6        7 1
   7        7        8 2
   8        7        9 am
   9        9       10 1
  10       10       11 ar
  11       11       12 ar
  12       12       13 ar
  13       13       14 1
  14       14       15 2
  15       15       16 1
  16       16       17 1
  17       17       18 1
  18       17       19 1
  19       16       20 2
  20       20       21 1
  21       21       14 1
  22       13       22 ar
  23       22       23 ar
  24       23       10 ar
  25        6       24 ar
  26       24       25 ar
  27       25        3 ar
  28       25       26 1
  29       26       27 2
  30       26       28 2
  31       26       29 1
  32       29       30 1
  33       30       31 1
  34       31       32 1
  35       32       33 1
  36       33       34 1
  37       34       35 1
  38       35       29 1
  39        1       36 1
  40        1       37 1
  41        1       38 1
  42        4       39 1
  43        5       40 1
  44        9       41 1
  45       11       42 1
  46       12       43 1
  47       17       44 1
  48       18       45 1
  49       18       46 1
  50       18       47 1
  51       19       48 1
  52       19       49 1
  53       19       50 1
  54       22       51 1
  55       23       52 1
  56       24       53 1
  57       30       54 1
  58       30       55 1
  59       31       56 1
  60       31       57 1
  61       32       58 1
  62       32       59 1
  63       33       60 1
  64       33       61 1
  65       34       62 1
  66       34       63 1
  67       35       64 1
  68       35       65 1

@<TRIPOS>MOLECULE

  65   68
SMALL
USER_CHARGES
@<TRIPOS>ATOM
   1 C1          -5.5877    -1.4646    -0.8359 C.3          1    LIG   0.0000
   2 O2          -4.6942    -0.5196    -1.4061 O.3          1    LIG   0.0000
   3 C3          -3.4811    -0.4399    -0.8201 C.ar         1    LIG   0.0000
   4 C4          -3.3104    -0.9145     0.4764 C.ar         1    LIG   0.0000
   5 C5          -2.0573    -0.8291     1.0751 C.ar         1    LIG   0.0000
   6 C6          -0.9895    -0.2734     0.3778 C.ar         1    LIG   0.0000
   7 C7           0.3150    -0.1864     1.0054 C.2          1    LIG   0.0000
   8 O8           0.7944    -1.1537     1.5294 O.2          1    LIG   0.0000
   9 N9           1.0000     1.0000     1.0000 N.am         1    LIG   0.0000
  10 C10          2.4002     1.0000     1.0000 C.ar         1    LIG   0.0000
  11 C11          3.0838     2.2112     0.9945 C.ar         1    LIG   0.0000
  12 C12          4.4746     2.2046     0.9949 C.ar         1    LIG   0.0000
  13 C13          5.1642     0.9958     0.9997 C.ar         1    LIG   0.0000
  14 C14          6.6150     0.9993     1.0006 C.2          1    LIG   0.0000
  15 N15          7.3778    -0.0665     1.0022 N.2          1    LIG   0.0000
  16 C16          8.6513     0.4084     1.0076 C.2          1    LIG   0.0000
  17 C17          9.9208    -0.4279     1.0127 C.3          1    LIG   0.0000
  18 C18          9.6623    -1.7456     0.3006 C.3          1    LIG   0.0000
  19 C19         11.0278     0.3272     0.2952 C.3          1    LIG   0.0000
  20 N20          8.5858     1.7152     1.0027 N.2          1    LIG   0.0000
  21 O21          7.3718     2.0695     0.9973 O.2          1    LIG   0.0000
  22 C22          4.4718    -0.2103     1.0045 C.ar         1    LIG   0.0000
  23 C23          3.0806    -0.2129     1.0054 C.ar         1    LIG   0.0000
  24 C24         -1.1565     0.2020    -0.9190 C.ar         1    LIG   0.0000
  25 C25         -2.4108     0.1145    -1.5134 C.ar         1    LIG   0.0000
  26 S26         -2.6402     0.7020    -3.1344 S.o2         1    LIG   0.0000
  27 O27         -1.3604     1.0067    -3.7201 O.2          1    LIG   0.0000
  28 O28         -3.3003    -0.3069    -3.9217 O.2          1    LIG   0.0000
  29 N29         -3.6294     2.1570    -3.0966 N.3          1    LIG   0.0000
  30 C30         -3.1847     3.0467    -2.0150 C.3          1    LIG   0.0000
  31 C31         -4.1874     4.1371    -1.6481 C.3          1    LIG   0.0000
  32 C32         -4.0108     5.4429    -2.4104 C.3          1    LIG   0.0000
  33 C33         -3.6770     5.2621    -3.8860 C.3          1    LIG   0.0000
  34 C34         -4.3885     4.0776    -4.5256 C.3          1    LIG   0.0000
  35 C35         -3.6016     2.7748    -4.4352 C.3          1    LIG   0.0000
  36 H           -6.4534    -1.4489    -1.3362 H            1    LIG   0.0000
  37 H           -5.1866    -2.3789    -0.8924 H            1    LIG   0.0000
  38 H           -5.7523    -1.2315     0.1225 H            1    LIG   0.0000
  39 H           -4.0810    -1.3133     0.9735 H            1    LIG   0.0000
  40 H           -1.9243    -1.1673     2.0067 H            1    LIG   0.0000
  41 H            0.5000     1.8660     0.9961 H            1    LIG   0.0000
  42 H            2.5816     3.0760     0.9903 H            1    LIG   0.0000
  43 H            4.9788     3.0681     0.9919 H            1    LIG   0.0000
  44 H           10.1976    -0.6078     1.9567 H            1    LIG   0.0000
  45 H           10.4974    -2.2957     0.3040 H            1    LIG   0.0000
  46 H            8.9340    -2.2423     0.7727 H            1    LIG   0.0000
  47 H            9.3855    -1.5657    -0.6433 H            1    LIG   0.0000
  48 H           11.8629    -0.2230     0.2986 H            1    LIG   0.0000
  49 H           10.7510     0.5071    -0.6487 H            1    LIG   0.0000
  50 H           11.1979     1.1941     0.7637 H            1    LIG   0.0000
  51 H            4.9737    -1.0752     1.0073 H            1    LIG   0.0000
  52 H            2.5760    -1.0763     1.0098 H            1    LIG   0.0000
  53 H           -0.3860     0.6007    -1.4164 H            1    LIG   0.0000
  54 H           -2.3337     3.4870    -2.3013 H            1    LIG   0.0000
  55 H           -3.0149     2.4905    -1.2015 H            1    LIG   0.0000
  56 H           -4.0939     4.3309    -0.6715 H            1    LIG   0.0000
  57 H           -5.1069     3.7901    -1.8326 H            1    LIG   0.0000
  58 H           -3.2692     5.9589    -1.9817 H            1    LIG   0.0000
  59 H           -4.8618     5.9636    -2.3425 H            1    LIG   0.0000
  60 H           -3.9421     6.0930    -4.3752 H            1    LIG   0.0000
  61 H           -2.6904     5.1243    -3.9734 H            1    LIG   0.0000
  62 H           -5.2668     3.9496    -4.0650 H            1    LIG   0.0000
  63 H           -4.5455     4.2863    -5.4909 H            1    LIG   0.0000
  64 H           -3.9888     2.1261    -5.0903 H            1    LIG   0.0000
  65 H           -2.6496     2.9636    -4.6760 H            1    LIG   0.0000
@<TRIPOS>BOND
   1        1        2 1
   2        2        3 1
   3        3        4 ar
   4        4        5 ar
   5        5        6 ar
   6        6        7 1
   7        7        8 2
   8        7        9 am
   9        9       10 1
  10       10       11 ar
  11       11       12 ar
  12       12       13 ar
  13       13       14 1
  14       14       15 2
  15       15       16 1
  16       16       17 1
  17       17       18 1
  18       17       19 1
  19       16       20 2
  20       20       21 1
  21       21       14 1
  22       13       22 ar
  23       22       23 ar
  24       23       10 ar
  25        6       24 ar
  26       24       25 ar
  27       25        3 ar
  28       25       26 1
  29       26       27 2
  30       26       28 2
  31       26       29 1
  32       29       30 1
  33       30       31 1
  34       31       32 1
  35       32       33 1
  36       33       34 1
  37       34       35 1
  38       35       29 1
  39        1       36 1
  40        1       37 1
  41        1       38 1
  42        4       39 1
  43        5       40 1
  44        9       41 1
  45       11       42 1
  46       12       43 1
  47       17       44 1
  48       18       45 1
  49       18       46 1
  50       18       47 1
  51       19       48 1
  52       19       49 1
  53       19       50 1
  54       22       51 1
  55       23       52 1
  56       24       53 1
  57       30       54 1
  58       30       55 1
  59       31       56 1
  60       31       57 1
  61       32       58 1
  62       32       59 1
  63       33       60 1
  64       33       61 1
  65       34       62 1
  66       34       63 1
  67       35       64 1
  68       35       65 1

@<TRIPOS>MOLECULE

  65   68
SMALL
USER_CHARGES
@<TRIPOS>ATOM
   1 C1          -4.8341     0.2129     4.6376 C.3          1    LIG   0.0000
   2 O2          -4.6954    -0.4995     3.4171 O.3          1    LIG   0.0000
   3 C3          -3.4805    -0.4225     2.8343 C.ar         1    LIG   0.0000
   4 C4          -2.4726     0.3214     3.4394 C.ar         1    LIG   0.0000
   5 C5          -1.2225     0.3970     2.8333 C.ar         1    LIG   0.0000
   6 C6          -0.9895    -0.2677     1.6337 C.ar         1    LIG   0.0000
   7 C7           0.3150    -0.1864     1.0054 C.2          1    LIG   0.0000
   8 O8           0.7944    -1.1584     0.4902 O.2          1    LIG   0.0000
   9 N9           1.0000     1.0000     1.0000 N.am         1    LIG   0.0000
  10 C10          2.4002     1.0000     1.0000 C.ar         1    LIG   0.0000
  11 C11          3.0838     2.2112     0.9945 C.ar         1    LIG   0.0000
  12 C12          4.4746     2.2046     0.9949 C.ar         1    LIG   0.0000
  13 C13          5.1642     0.9958     0.9997 C.ar         1    LIG   0.0000
  14 C14          6.6150     0.9993     1.0006 C.2          1    LIG   0.0000
  15 N15          7.3778    -0.0665     1.0022 N.2          1    LIG   0.0000
  16 C16          8.6513     0.4084     1.0076 C.2          1    LIG   0.0000
  17 C17          9.9208    -0.4279     1.0127 C.3          1    LIG   0.0000
  18 C18          9.6623    -1.7456     0.3006 C.3          1    LIG   0.0000
  19 C19         11.0278     0.3272     0.2952 C.3          1    LIG   0.0000
  20 N20          8.5858     1.7152     1.0027 N.2          1    LIG   0.0000
  21 O21          7.3718     2.0695     0.9973 O.2          1    LIG   0.0000
  22 C22          4.4718    -0.2103     1.0045 C.ar         1    LIG   0.0000
  23 C23          3.0806    -0.2129     1.0054 C.ar         1    LIG   0.0000
  24 C24         -1.9950    -1.0128     1.0259 C.ar         1    LIG   0.0000
  25 C25         -3.2430    -1.0855     1.6354 C.ar         1    LIG   0.0000
  26 S26         -4.5132    -2.0129     0.8923 S.o2         1    LIG   0.0000
  27 O27         -5.0944    -2.8987     1.8676 O.2          1    LIG   0.0000
  28 O28         -5.5264    -1.1221     0.3888 O.2          1    LIG   0.0000
  29 N29         -3.8497    -2.9574    -0.4362 N.3          1    LIG   0.0000
  30 C30         -2.8807    -3.9386     0.0712 C.3          1    LIG   0.0000
  31 C31         -1.9767    -4.5393    -1.0015 C.3          1    LIG   0.0000
  32 C32         -2.5087    -5.8166    -1.6362 C.3          1    LIG   0.0000
  33 C33         -4.0076    -5.7987    -1.9090 C.3          1    LIG   0.0000
  34 C34         -4.5251    -4.4364    -2.3501 C.3          1    LIG   0.0000
  35 C35         -4.9687    -3.5503    -1.1915 C.3          1    LIG   0.0000
  36 H           -5.7630     0.0950     4.9887 H            1    LIG   0.0000
  37 H           -4.1782    -0.1390     5.3054 H            1    LIG   0.0000
  38 H           -4.6589     1.1845     4.4783 H            1    LIG   0.0000
  39 H           -2.6450     0.7973     4.3018 H            1    LIG   0.0000
  40 H           -0.4915     0.9293     3.2602 H            1    LIG   0.0000
  41 H            0.5000     1.8660     0.9961 H            1    LIG   0.0000
  42 H            2.5816     3.0760     0.9903 H            1    LIG   0.0000
  43 H            4.9788     3.0681     0.9919 H            1    LIG   0.0000
  44 H           10.1976    -0.6078     1.9567 H            1    LIG   0.0000
  45 H           10.4974    -2.2957     0.3040 H            1    LIG   0.0000
  46 H            8.9340    -2.2423     0.7727 H            1    LIG   0.0000
  47 H            9.3855    -1.5657    -0.6433 H            1    LIG   0.0000
  48 H           11.8629    -0.2230     0.2986 H            1    LIG   0.0000
  49 H           10.7510     0.5071    -0.6487 H            1    LIG   0.0000
  50 H           11.1979     1.1941     0.7637 H            1    LIG   0.0000
  51 H            4.9737    -1.0752     1.0073 H            1    LIG   0.0000
  52 H            2.5760    -1.0763     1.0098 H            1    LIG   0.0000
  53 H           -1.8230    -1.4889     0.1635 H            1    LIG   0.0000
  54 H           -3.3872    -4.6827     0.5069 H            1    LIG   0.0000
  55 H           -2.3030    -3.4861     0.7505 H            1    LIG   0.0000
  56 H           -1.0911    -4.7436    -0.5845 H            1    LIG   0.0000
  57 H           -1.8557    -3.8589    -1.7243 H            1    LIG   0.0000
  58 H           -2.3107    -6.5792    -1.0203 H            1    LIG   0.0000
  59 H           -2.0331    -5.9574    -2.5045 H            1    LIG   0.0000
  60 H           -4.2066    -6.4622    -2.6302 H            1    LIG   0.0000
  61 H           -4.4855    -6.0634    -1.0714 H            1    LIG   0.0000
  62 H           -3.7955    -3.9664    -2.8469 H            1    LIG   0.0000
  63 H           -5.3062    -4.5764    -2.9587 H            1    LIG   0.0000
  64 H           -5.5301    -2.8085    -1.5584 H            1    LIG   0.0000
  65 H           -5.5160    -4.1030    -0.5630 H            1    LIG   0.0000
@<TRIPOS>BOND
   1        1        2 1
   2        2        3 1
   3        3        4 ar
   4        4        5 ar
   5        5        6 ar
   6        6        7 1
   7        7        8 2
   8        7        9 am
   9        9       10 1
  10       10       11 ar
  11       11       12 ar
  12       12       13 ar
  13       13       14 1
  14       14       15 2
  15       15       16 1
  16       16       17 1
  17       17       18 1
  18       17       19 1
  19       16       20 2
  20       20       21 1
  21       21       14 1
  22       13       22 ar
  23       22       23 ar
  24       23       10 ar
  25        6       24 ar
  26       24       25 ar
  27       25        3 ar
  28       25       26 1
  29       26       27 2
  30       26       28 2
  31       26       29 1
  32       29       30 1
  33       30       31 1
  34       31       32 1
  35       32       33 1
  36       33       34 1
  37       34       35 1
  38       35       29 1
  39        1       36 1
  40        1       37 1
  41        1       38 1
  42        4       39 1
  43        5       40 1
  44        9       41 1
  45       11       42 1
  46       12       43 1
  47       17       44 1
  48       18       45 1
  49       18       46 1
  50       18       47 1
  51       19       48 1
  52       19       49 1
  53       19       50 1
  54       22       51 1
  55       23       52 1
  56       24       53 1
  57       30       54 1
  58       30       55 1
  59       31       56 1
  60       31       57 1
  61       32       58 1
  62       32       59 1
  63       33       60 1
  64       33       61 1
  65       34       62 1
  66       34       63 1
  67       35       64 1
  68       35       65 1

@<TRIPOS>MOLECULE

  65   68
SMALL
USER_CHARGES
@<TRIPOS>ATOM
   1 C1          -4.7297    -0.2224    -2.7913 C.3          1    LIG   0.0000
   2 O2          -4.6953    -0.5216    -1.4036 O.3          1    LIG   0.0000
   3 C3          -3.4806    -0.4390    -0.8213 C.ar         1    LIG   0.0000
   4 C4          -2.4728     0.2997    -1.4328 C.ar         1    LIG   0.0000
   5 C5          -1.2226     0.3806    -0.8277 C.ar         1    LIG   0.0000
   6 C6          -0.9895    -0.2734     0.3778 C.ar         1    LIG   0.0000
   7 C7           0.3150    -0.1864     1.0054 C.2          1    LIG   0.0000
   8 O8           0.7944    -1.1537     1.5294 O.2          1    LIG   0.0000
   9 N9           1.0000     1.0000     1.0000 N.am         1    LIG   0.0000
  10 C10          2.4002     1.0000     1.0000 C.ar         1    LIG   0.0000
  11 C11          3.0838     2.2112     0.9945 C.ar         1    LIG   0.0000
  12 C12          4.4746     2.2046     0.9949 C.ar         1    LIG   0.0000
  13 C13          5.1642     0.9958     0.9997 C.ar         1    LIG   0.0000
  14 C14          6.6150     0.9993     1.0006 C.2          1    LIG   0.0000
  15 N15          7.3776     0.1826     0.3157 N.2          1    LIG   0.0000
  16 C16          8.6513     0.5441     0.6234 C.2          1    LIG   0.0000
  17 C17          9.9206    -0.0986     0.0880 C.3          1    LIG   0.0000
  18 C18         11.1322     0.6067     0.6753 C.3          1    LIG   0.0000
  19 C19          9.9495    -1.5668     0.4803 C.3          1    LIG   0.0000
  20 N20          8.5859     1.5483     1.4597 N.2          1    LIG   0.0000
  21 O21          7.3720     1.8220     1.6849 O.2          1    LIG   0.0000
  22 C22          4.4718    -0.2103     1.0045 C.ar         1    LIG   0.0000
  23 C23          3.0806    -0.2129     1.0054 C.ar         1    LIG   0.0000
  24 C24         -1.9950    -1.0129     0.9924 C.ar         1    LIG   0.0000
  25 C25         -3.2431    -1.0909     0.3837 C.ar         1    LIG   0.0000
  26 S26         -4.5141    -2.0093     1.1366 S.o2         1    LIG   0.0000
  27 O27         -5.7081    -1.2075     1.2080 O.2          1    LIG   0.0000
  28 O28         -4.7764    -3.1927     0.3592 O.2          1    LIG   0.0000
  29 N29         -4.0203    -2.4721     2.7611 N.3          1    LIG   0.0000
  30 C30         -4.2935    -1.3808     3.7063 C.3          1    LIG   0.0000
  31 C31         -3.5723    -1.5152     5.0445 C.3          1    LIG   0.0000
  32 C32         -4.3577    -2.2587     6.1158 C.3          1    LIG   0.0000
  33 C33         -5.1158    -3.4756     5.6001 C.3          1    LIG   0.0000
  34 C34         -4.3687    -4.2369     4.5135 C.3          1    LIG   0.0000
  35 C35         -4.6794    -3.7457     3.1040 C.3          1    LIG   0.0000
  36 H           -5.6670    -0.3107    -3.1282 H            1    LIG   0.0000
  37 H           -4.4094     0.7134    -2.9385 H            1    LIG   0.0000
  38 H           -4.1368    -0.8591    -3.2843 H            1    LIG   0.0000
  39 H           -2.6453     0.7682    -2.2993 H            1    LIG   0.0000
  40 H           -0.4915     0.9090    -1.2593 H            1    LIG   0.0000
  41 H            0.5000     1.8660     0.9961 H            1    LIG   0.0000
  42 H            2.5816     3.0760     0.9903 H            1    LIG   0.0000
  43 H            4.9788     3.0681     0.9919 H            1    LIG   0.0000
  44 H            9.9395    -0.0195    -0.9087 H            1    LIG   0.0000
  45 H           11.9672     0.1839     0.3231 H            1    LIG   0.0000
  46 H           11.1132     1.5726     0.4172 H            1    LIG   0.0000
  47 H           11.1133     0.5275     1.6720 H            1    LIG   0.0000
  48 H           10.7845    -1.9896     0.1281 H            1    LIG   0.0000
  49 H            9.9306    -1.6460     1.4770 H            1    LIG   0.0000
  50 H            9.1523    -2.0308     0.0939 H            1    LIG   0.0000
  51 H            4.9737    -1.0752     1.0073 H            1    LIG   0.0000
  52 H            2.5760    -1.0763     1.0098 H            1    LIG   0.0000
  53 H           -1.8229    -1.4815     1.8589 H            1    LIG   0.0000
  54 H           -5.2777    -1.3572     3.8818 H            1    LIG   0.0000
  55 H           -4.0098    -0.5206     3.2825 H            1    LIG   0.0000
  56 H           -3.3730    -0.5964     5.3851 H            1    LIG   0.0000
  57 H           -2.7152    -2.0063     4.8889 H            1    LIG   0.0000
  58 H           -5.0182    -1.6245     6.5178 H            1    LIG   0.0000
  59 H           -3.7168    -2.5634     6.8204 H            1    LIG   0.0000
  60 H           -5.2788    -4.0962     6.3671 H            1    LIG   0.0000
  61 H           -5.9917    -3.1691     5.2274 H            1    LIG   0.0000
  62 H           -3.3869    -4.1364     4.6746 H            1    LIG   0.0000
  63 H           -4.6194    -5.2030     4.5745 H            1    LIG   0.0000
  64 H           -4.3777    -4.4425     2.4532 H            1    LIG   0.0000
  65 H           -5.6683    -3.6209     3.0240 H            1    LIG   0.0000
@<TRIPOS>BOND
   1        1        2 1
   2        2        3 1
   3        3        4 ar
   4        4        5 ar
   5        5        6 ar
   6        6        7 1
   7        7        8 2
   8        7        9 am
   9        9       10 1
  10       10       11 ar
  11       11       12 ar
  12       12       13 ar
  13       13       14 1
  14       14       15 2
  15       15       16 1
  16       16       17 1
  17       17       18 1
  18       17       19 1
  19       16       20 2
  20       20       21 1
  21       21       14 1
  22       13       22 ar
  23       22       23 ar
  24       23       10 ar
  25        6       24 ar
  26       24       25 ar
  27       25        3 ar
  28       25       26 1
  29       26       27 2
  30       26       28 2
  31       26       29 1
  32       29       30 1
  33       30       31 1
  34       31       32 1
  35       32       33 1
  36       33       34 1
  37       34       35 1
  38       35       29 1
  39        1       36 1
  40        1       37 1
  41        1       38 1
  42        4       39 1
  43        5       40 1
  44        9       41 1
  45       11       42 1
  46       12       43 1
  47       17       44 1
  48       18       45 1
  49       18       46 1
  50       18       47 1
  51       19       48 1
  52       19       49 1
  53       19       50 1
  54       22       51 1
  55       23       52 1
  56       24       53 1
  57       30       54 1
  58       30       55 1
  59       31       56 1
  60       31       57 1
  61       32       58 1
  62       32       59 1
  63       33       60 1
  64       33       61 1
  65       34       62 1
  66       34       63 1
  67       35       64 1
  68       35       65 1

