@<TRIPOS>MOLECULE
*****
 65 68 0 0 0
SMALL
USER_CHARGES

@<TRIPOS>ATOM
      1 C1         -5.1270   -1.8034    3.7688 C.3     1  LIG1        0.0000
      2 O2         -4.6949   -0.4969    3.4185 O.2     1  LIG1        0.0000
      3 C3         -3.4808   -0.4238    2.8337 C.3     1  LIG1        0.0000
      4 C4         -2.7504   -1.5875    2.6158 C.3     1  LIG1        0.0000
      5 C5         -1.4992   -1.5053    2.0129 C.3     1  LIG1        0.0000
      6 C6         -0.9895   -0.2677    1.6337 C.3     1  LIG1        0.0000
      7 C7          0.3150   -0.1864    1.0054 C.2     1  LIG1        0.0000
      8 O8          0.7944   -1.1584    0.4902 O.2     1  LIG1        0.0000
      9 N9          1.0000    1.0000    1.0000 N.am    1  LIG1        0.0000
     10 C10         2.4002    1.0000    1.0000 C.3     1  LIG1        0.0000
     11 C11         3.0838    2.2112    0.9945 C.3     1  LIG1        0.0000
     12 C12         4.4746    2.2046    0.9949 C.3     1  LIG1        0.0000
     13 C13         5.1642    0.9958    0.9997 C.3     1  LIG1        0.0000
     14 C14         6.6150    0.9993    1.0006 C.2     1  LIG1        0.0000
     15 N15         7.3778   -0.0665    1.0022 N.2     1  LIG1        0.0000
     16 C16         8.6513    0.4084    1.0076 C.2     1  LIG1        0.0000
     17 C17         9.9208   -0.4279    1.0127 C.3     1  LIG1        0.0000
     18 C18        11.0255    0.3324    1.7283 C.3     1  LIG1        0.0000
     19 C19         9.6600   -1.7403    1.7337 C.3     1  LIG1        0.0000
     20 N20         8.5858    1.7152    1.0027 N.2     1  LIG1        0.0000
     21 O21         7.3718    2.0695    0.9973 O.2     1  LIG1        0.0000
     22 C22         4.4718   -0.2103    1.0045 C.3     1  LIG1        0.0000
     23 C23         3.0806   -0.2129    1.0054 C.3     1  LIG1        0.0000
     24 C24        -1.7172    0.8982    1.8499 C.3     1  LIG1        0.0000
     25 C25        -2.9675    0.8111    2.4529 C.3     1  LIG1        0.0000
     26 S26        -3.8937    2.2570    2.7307 S.O2    1  LIG1        0.0000
     27 O27        -4.3444    2.2829    4.0981 O.2     1  LIG1        0.0000
     28 O28        -3.0711    3.4107    2.4745 O.2     1  LIG1        0.0000
     29 N29        -5.2855    2.2780    1.6539 N.3     1  LIG1        0.0000
     30 C30        -6.1858    1.1589    1.9640 C.3     1  LIG1        0.0000
     31 C31        -7.2084    0.8560    0.8724 C.3     1  LIG1        0.0000
     32 C32        -8.5327    1.5915    1.0229 C.3     1  LIG1        0.0000
     33 C33        -8.3924    3.0406    1.4726 C.3     1  LIG1        0.0000
     34 C34        -7.1757    3.7409    0.8832 C.3     1  LIG1        0.0000
     35 C35        -5.9218    3.6053    1.7400 C.3     1  LIG1        0.0000
     36 H          -6.0313   -1.7530    4.1926 H       1  LIG1        0.0000
     37 H          -5.1755   -2.3702    2.9463 H       1  LIG1        0.0000
     38 H          -4.4785   -2.2072    4.4140 H       1  LIG1        0.0000
     39 H          -3.1212   -2.4749    2.8900 H       1  LIG1        0.0000
     40 H          -0.9662   -2.3361    1.8520 H       1  LIG1        0.0000
     41 H           0.5000    1.8660    0.9961 H       1  LIG1        0.0000
     42 H           2.5816    3.0760    0.9903 H       1  LIG1        0.0000
     43 H           4.9788    3.0681    0.9919 H       1  LIG1        0.0000
     44 H          10.2007   -0.6147    0.0711 H       1  LIG1        0.0000
     45 H          11.8606   -0.2177    1.7316 H       1  LIG1        0.0000
     46 H          11.1971    1.1959    1.2540 H       1  LIG1        0.0000
     47 H          10.7456    0.5193    2.6699 H       1  LIG1        0.0000
     48 H          10.4951   -2.2905    1.7370 H       1  LIG1        0.0000
     49 H           9.3801   -1.5535    2.6753 H       1  LIG1        0.0000
     50 H           8.9332   -2.2405    1.2629 H       1  LIG1        0.0000
     51 H           4.9737   -1.0752    1.0073 H       1  LIG1        0.0000
     52 H           2.5760   -1.0763    1.0098 H       1  LIG1        0.0000
     53 H          -1.3468    1.7857    1.5757 H       1  LIG1        0.0000
     54 H          -6.6807    1.3786    2.8047 H       1  LIG1        0.0000
     55 H          -5.6300    0.3403    2.1086 H       1  LIG1        0.0000
     56 H          -7.3943   -0.1265    0.8832 H       1  LIG1        0.0000
     57 H          -6.8088    1.1100   -0.0084 H       1  LIG1        0.0000
     58 H          -9.0868    1.1054    1.6986 H       1  LIG1        0.0000
     59 H          -8.9999    1.5810    0.1388 H       1  LIG1        0.0000
     60 H          -9.2122    3.5401    1.1929 H       1  LIG1        0.0000
     61 H          -8.3158    3.0572    2.4695 H       1  LIG1        0.0000
     62 H          -6.9885    3.3466   -0.0165 H       1  LIG1        0.0000
     63 H          -7.3874    4.7131    0.7836 H       1  LIG1        0.0000
     64 H          -5.2597    4.2927    1.4415 H       1  LIG1        0.0000
     65 H          -6.1712    3.7745    2.6935 H       1  LIG1        0.0000
@<TRIPOS>BOND
     1     1     2    1
     2     2     3    1
     3     3     4   ar
     4     4     5   ar
     5     5     6   ar
     6     6     7    1
     7     7     8    2
     8     7     9   am
     9     9    10    1
    10    10    11   ar
    11    11    12   ar
    12    12    13   ar
    13    13    14    1
    14    14    15    2
    15    15    16    1
    16    16    17    1
    17    17    18    1
    18    17    19    1
    19    16    20    2
    20    20    21    1
    21    21    14    1
    22    13    22   ar
    23    22    23   ar
    24    23    10   ar
    25     6    24   ar
    26    24    25   ar
    27    25     3   ar
    28    25    26    1
    29    26    27    2
    30    26    28    2
    31    26    29    1
    32    29    30    1
    33    30    31    1
    34    31    32    1
    35    32    33    1
    36    33    34    1
    37    34    35    1
    38    35    29    1
    39     1    36    1
    40     1    37    1
    41     1    38    1
    42     4    39    1
    43     5    40    1
    44     9    41    1
    45    11    42    1
    46    12    43    1
    47    17    44    1
    48    18    45    1
    49    18    46    1
    50    18    47    1
    51    19    48    1
    52    19    49    1
    53    19    50    1
    54    22    51    1
    55    23    52    1
    56    24    53    1
    57    30    54    1
    58    30    55    1
    59    31    56    1
    60    31    57    1
    61    32    58    1
    62    32    59    1
    63    33    60    1
    64    33    61    1
    65    34    62    1
    66    34    63    1
    67    35    64    1
    68    35    65    1
