@<TRIPOS>MOLECULE
*****
 65 68 0 0 0
SMALL
USER_CHARGES

@<TRIPOS>ATOM
      1 C1         -5.5874   -1.4484    2.8584 C.3     1  LIG1        0.0000
      2 O2         -4.6942   -0.4980    3.4199 O.2     1  LIG1        0.0000
      3 C3         -3.4811   -0.4233    2.8330 C.3     1  LIG1        0.0000
      4 C4         -3.3105   -0.9092    1.5407 C.3     1  LIG1        0.0000
      5 C5         -2.0574   -0.8295    0.9414 C.3     1  LIG1        0.0000
      6 C6         -0.9895   -0.2677    1.6337 C.3     1  LIG1        0.0000
      7 C7          0.3150   -0.1864    1.0054 C.2     1  LIG1        0.0000
      8 O8          0.7944   -1.1584    0.4902 O.2     1  LIG1        0.0000
      9 N9          1.0000    1.0000    1.0000 N.am    1  LIG1        0.0000
     10 C10         2.4002    1.0000    1.0000 C.3     1  LIG1        0.0000
     11 C11         3.0838    2.2112    0.9945 C.3     1  LIG1        0.0000
     12 C12         4.4746    2.2046    0.9949 C.3     1  LIG1        0.0000
     13 C13         5.1642    0.9958    0.9997 C.3     1  LIG1        0.0000
     14 C14         6.6150    0.9993    1.0006 C.2     1  LIG1        0.0000
     15 N15         7.3778   -0.0665    1.0022 N.2     1  LIG1        0.0000
     16 C16         8.6513    0.4084    1.0076 C.2     1  LIG1        0.0000
     17 C17         9.9208   -0.4279    1.0127 C.3     1  LIG1        0.0000
     18 C18        11.0255    0.3324    1.7283 C.3     1  LIG1        0.0000
     19 C19         9.6600   -1.7403    1.7337 C.3     1  LIG1        0.0000
     20 N20         8.5858    1.7152    1.0027 N.2     1  LIG1        0.0000
     21 O21         7.3718    2.0695    0.9973 O.2     1  LIG1        0.0000
     22 C22         4.4718   -0.2103    1.0045 C.3     1  LIG1        0.0000
     23 C23         3.0806   -0.2129    1.0054 C.3     1  LIG1        0.0000
     24 C24        -1.1565    0.2194    2.9262 C.3     1  LIG1        0.0000
     25 C25        -2.4109    0.1377    3.5211 C.3     1  LIG1        0.0000
     26 S26        -2.6409    0.7423    5.1358 S.O2    1  LIG1        0.0000
     27 O27        -1.4714    1.4763    5.5446 O.2     1  LIG1        0.0000
     28 O28        -3.7879    1.6125    5.1637 O.2     1  LIG1        0.0000
     29 N29        -2.9010   -0.6066    6.2358 N.3     1  LIG1        0.0000
     30 C30        -1.7031   -1.4557    6.2921 C.3     1  LIG1        0.0000
     31 C31        -1.9400   -2.8343    6.9020 C.3     1  LIG1        0.0000
     32 C32        -1.7163   -2.9088    8.4060 C.3     1  LIG1        0.0000
     33 C33        -2.2389   -1.7009    9.1736 C.3     1  LIG1        0.0000
     34 C34        -3.5355   -1.1394    8.6065 C.3     1  LIG1        0.0000
     35 C35        -3.3204   -0.0684    7.5429 C.3     1  LIG1        0.0000
     36 H          -6.4531   -1.4283    3.3586 H       1  LIG1        0.0000
     37 H          -5.7522   -1.2241    1.8979 H       1  LIG1        0.0000
     38 H          -5.1860   -2.3620    2.9232 H       1  LIG1        0.0000
     39 H          -4.0813   -1.3119    1.0471 H       1  LIG1        0.0000
     40 H          -1.9244   -1.1761    0.0129 H       1  LIG1        0.0000
     41 H           0.5000    1.8660    0.9961 H       1  LIG1        0.0000
     42 H           2.5816    3.0760    0.9903 H       1  LIG1        0.0000
     43 H           4.9788    3.0681    0.9919 H       1  LIG1        0.0000
     44 H          10.2007   -0.6147    0.0711 H       1  LIG1        0.0000
     45 H          11.8606   -0.2177    1.7316 H       1  LIG1        0.0000
     46 H          11.1971    1.1959    1.2540 H       1  LIG1        0.0000
     47 H          10.7456    0.5193    2.6699 H       1  LIG1        0.0000
     48 H          10.4951   -2.2905    1.7370 H       1  LIG1        0.0000
     49 H           9.3801   -1.5535    2.6753 H       1  LIG1        0.0000
     50 H           8.9332   -2.2405    1.2629 H       1  LIG1        0.0000
     51 H           4.9737   -1.0752    1.0073 H       1  LIG1        0.0000
     52 H           2.5760   -1.0763    1.0098 H       1  LIG1        0.0000
     53 H          -0.3860    0.6224    3.4200 H       1  LIG1        0.0000
     54 H          -1.0111   -0.9854    6.8398 H       1  LIG1        0.0000
     55 H          -1.3628   -1.5797    5.3600 H       1  LIG1        0.0000
     56 H          -1.3175   -3.4814    6.4617 H       1  LIG1        0.0000
     57 H          -2.8853   -3.1004    6.7138 H       1  LIG1        0.0000
     58 H          -0.7335   -2.9863    8.5738 H       1  LIG1        0.0000
     59 H          -2.1789   -3.7250    8.7521 H       1  LIG1        0.0000
     60 H          -2.3995   -1.9733   10.1223 H       1  LIG1        0.0000
     61 H          -1.5436   -0.9827    9.1462 H       1  LIG1        0.0000
     62 H          -4.0543   -1.8908    8.1987 H       1  LIG1        0.0000
     63 H          -4.0621   -0.7393    9.3566 H       1  LIG1        0.0000
     64 H          -4.1785    0.4298    7.4185 H       1  LIG1        0.0000
     65 H          -2.6136    0.5606    7.8667 H       1  LIG1        0.0000
@<TRIPOS>BOND
     1     1     2    1
     2     2     3    1
     3     3     4   ar
     4     4     5   ar
     5     5     6   ar
     6     6     7    1
     7     7     8    2
     8     7     9   am
     9     9    10    1
    10    10    11   ar
    11    11    12   ar
    12    12    13   ar
    13    13    14    1
    14    14    15    2
    15    15    16    1
    16    16    17    1
    17    17    18    1
    18    17    19    1
    19    16    20    2
    20    20    21    1
    21    21    14    1
    22    13    22   ar
    23    22    23   ar
    24    23    10   ar
    25     6    24   ar
    26    24    25   ar
    27    25     3   ar
    28    25    26    1
    29    26    27    2
    30    26    28    2
    31    26    29    1
    32    29    30    1
    33    30    31    1
    34    31    32    1
    35    32    33    1
    36    33    34    1
    37    34    35    1
    38    35    29    1
    39     1    36    1
    40     1    37    1
    41     1    38    1
    42     4    39    1
    43     5    40    1
    44     9    41    1
    45    11    42    1
    46    12    43    1
    47    17    44    1
    48    18    45    1
    49    18    46    1
    50    18    47    1
    51    19    48    1
    52    19    49    1
    53    19    50    1
    54    22    51    1
    55    23    52    1
    56    24    53    1
    57    30    54    1
    58    30    55    1
    59    31    56    1
    60    31    57    1
    61    32    58    1
    62    32    59    1
    63    33    60    1
    64    33    61    1
    65    34    62    1
    66    34    63    1
    67    35    64    1
    68    35    65    1
