@<TRIPOS>MOLECULE
*****
 65 68 0 0 0
SMALL
USER_CHARGES

@<TRIPOS>ATOM
      1 C1         -4.8702   -1.5693    4.3322 C.3     1  LIG1        0.0000
      2 O2         -4.6952   -0.4972    3.4177 O.2     1  LIG1        0.0000
      3 C3         -3.4806   -0.4237    2.8341 C.3     1  LIG1        0.0000
      4 C4         -2.5071   -1.3661    3.1494 C.3     1  LIG1        0.0000
      5 C5         -1.2568   -1.2846    2.5446 C.3     1  LIG1        0.0000
      6 C6         -0.9895   -0.2677    1.6337 C.3     1  LIG1        0.0000
      7 C7          0.3150   -0.1864    1.0054 C.2     1  LIG1        0.0000
      8 O8          0.7944   -1.1584    0.4902 O.2     1  LIG1        0.0000
      9 N9          1.0000    1.0000    1.0000 N.am    1  LIG1        0.0000
     10 C10         2.4002    1.0000    1.0000 C.3     1  LIG1        0.0000
     11 C11         3.0838    2.2112    0.9945 C.3     1  LIG1        0.0000
     12 C12         4.4746    2.2046    0.9949 C.3     1  LIG1        0.0000
     13 C13         5.1642    0.9958    0.9997 C.3     1  LIG1        0.0000
     14 C14         6.6150    0.9993    1.0006 C.2     1  LIG1        0.0000
     15 N15         7.3778   -0.0665    1.0022 N.2     1  LIG1        0.0000
     16 C16         8.6513    0.4084    1.0076 C.2     1  LIG1        0.0000
     17 C17         9.9208   -0.4279    1.0127 C.3     1  LIG1        0.0000
     18 C18        10.7401   -0.1128   -0.2282 C.3     1  LIG1        0.0000
     19 C19        10.7361   -0.1037    2.2539 C.3     1  LIG1        0.0000
     20 N20         8.5858    1.7152    1.0027 N.2     1  LIG1        0.0000
     21 O21         7.3718    2.0695    0.9973 O.2     1  LIG1        0.0000
     22 C22         4.4718   -0.2103    1.0045 C.3     1  LIG1        0.0000
     23 C23         3.0806   -0.2129    1.0054 C.3     1  LIG1        0.0000
     24 C24        -1.9606    0.6764    1.3158 C.3     1  LIG1        0.0000
     25 C25        -3.2090    0.5909    1.9228 C.3     1  LIG1        0.0000
     26 S26        -4.4374    1.7608    1.5379 S.O2    1  LIG1        0.0000
     27 O27        -4.7269    1.7067    0.1283 O.2     1  LIG1        0.0000
     28 O28        -5.6324    1.4656    2.2851 O.2     1  LIG1        0.0000
     29 N29        -3.8658    3.3714    1.9579 N.3     1  LIG1        0.0000
     30 C30        -2.4747    3.5483    1.5186 C.3     1  LIG1        0.0000
     31 C31        -1.7635    4.7397    2.1538 C.3     1  LIG1        0.0000
     32 C32        -1.8778    6.0385    1.3681 C.3     1  LIG1        0.0000
     33 C33        -3.2556    6.2819    0.7648 C.3     1  LIG1        0.0000
     34 C34        -4.3968    5.8070    1.6537 C.3     1  LIG1        0.0000
     35 C35        -4.8051    4.3604    1.3980 C.3     1  LIG1        0.0000
     36 H          -5.7960   -1.5384    4.7090 H       1  LIG1        0.0000
     37 H          -4.7326   -2.4384    3.8572 H       1  LIG1        0.0000
     38 H          -4.2053   -1.4862    5.0745 H       1  LIG1        0.0000
     39 H          -2.7042   -2.0954    3.8047 H       1  LIG1        0.0000
     40 H          -0.5503   -1.9572    2.7647 H       1  LIG1        0.0000
     41 H           0.5000    1.8660    0.9961 H       1  LIG1        0.0000
     42 H           2.5816    3.0760    0.9903 H       1  LIG1        0.0000
     43 H           4.9788    3.0681    0.9919 H       1  LIG1        0.0000
     44 H           9.6805   -1.3986    1.0159 H       1  LIG1        0.0000
     45 H          11.5752   -0.6629   -0.2248 H       1  LIG1        0.0000
     46 H          10.2037   -0.3261   -1.0448 H       1  LIG1        0.0000
     47 H          10.9804    0.8579   -0.2314 H       1  LIG1        0.0000
     48 H          11.5712   -0.6538    2.2573 H       1  LIG1        0.0000
     49 H          10.9764    0.8670    2.2508 H       1  LIG1        0.0000
     50 H          10.1971   -0.3110    3.0703 H       1  LIG1        0.0000
     51 H           4.9737   -1.0752    1.0073 H       1  LIG1        0.0000
     52 H           2.5760   -1.0763    1.0098 H       1  LIG1        0.0000
     53 H          -1.7640    1.4057    0.6605 H       1  LIG1        0.0000
     54 H          -2.4730    3.6747    0.5267 H       1  LIG1        0.0000
     55 H          -1.9653    2.7194    1.7499 H       1  LIG1        0.0000
     56 H          -0.7936    4.5130    2.2423 H       1  LIG1        0.0000
     57 H          -2.1551    4.8889    3.0618 H       1  LIG1        0.0000
     58 H          -1.2091    6.0158    0.6249 H       1  LIG1        0.0000
     59 H          -1.6661    6.7976    1.9838 H       1  LIG1        0.0000
     60 H          -3.3638    7.2634    0.6071 H       1  LIG1        0.0000
     61 H          -3.3100    5.7962   -0.1077 H       1  LIG1        0.0000
     62 H          -4.1107    5.8912    2.6082 H       1  LIG1        0.0000
     63 H          -5.1902    6.3934    1.4906 H       1  LIG1        0.0000
     64 H          -5.7044    4.2091    1.8081 H       1  LIG1        0.0000
     65 H          -4.8612    4.2183    0.4097 H       1  LIG1        0.0000
@<TRIPOS>BOND
     1     1     2    1
     2     2     3    1
     3     3     4   ar
     4     4     5   ar
     5     5     6   ar
     6     6     7    1
     7     7     8    2
     8     7     9   am
     9     9    10    1
    10    10    11   ar
    11    11    12   ar
    12    12    13   ar
    13    13    14    1
    14    14    15    2
    15    15    16    1
    16    16    17    1
    17    17    18    1
    18    17    19    1
    19    16    20    2
    20    20    21    1
    21    21    14    1
    22    13    22   ar
    23    22    23   ar
    24    23    10   ar
    25     6    24   ar
    26    24    25   ar
    27    25     3   ar
    28    25    26    1
    29    26    27    2
    30    26    28    2
    31    26    29    1
    32    29    30    1
    33    30    31    1
    34    31    32    1
    35    32    33    1
    36    33    34    1
    37    34    35    1
    38    35    29    1
    39     1    36    1
    40     1    37    1
    41     1    38    1
    42     4    39    1
    43     5    40    1
    44     9    41    1
    45    11    42    1
    46    12    43    1
    47    17    44    1
    48    18    45    1
    49    18    46    1
    50    18    47    1
    51    19    48    1
    52    19    49    1
    53    19    50    1
    54    22    51    1
    55    23    52    1
    56    24    53    1
    57    30    54    1
    58    30    55    1
    59    31    56    1
    60    31    57    1
    61    32    58    1
    62    32    59    1
    63    33    60    1
    64    33    61    1
    65    34    62    1
    66    34    63    1
    67    35    64    1
    68    35    65    1
