@<TRIPOS>MOLECULE
*****
 65 68 0 0 0
SMALL
USER_CHARGES

@<TRIPOS>ATOM
      1 C1         -5.3664    0.7139   -1.5980 C.3     1  LIG1        0.0000
      2 O2         -4.6946   -0.5221   -1.4050 O.2     1  LIG1        0.0000
      3 C3         -3.4809   -0.4387   -0.8207 C.3     1  LIG1        0.0000
      4 C4         -2.9770    0.8053   -0.4548 C.3     1  LIG1        0.0000
      5 C5         -1.7251    0.8845    0.1469 C.3     1  LIG1        0.0000
      6 C6         -0.9895   -0.2734    0.3778 C.3     1  LIG1        0.0000
      7 C7          0.3150   -0.1864    1.0054 C.2     1  LIG1        0.0000
      8 O8          0.7944   -1.1537    1.5294 O.2     1  LIG1        0.0000
      9 N9          1.0000    1.0000    1.0000 N.am    1  LIG1        0.0000
     10 C10         2.4002    1.0000    1.0000 C.3     1  LIG1        0.0000
     11 C11         3.0838    2.2112    0.9945 C.3     1  LIG1        0.0000
     12 C12         4.4746    2.2046    0.9949 C.3     1  LIG1        0.0000
     13 C13         5.1642    0.9958    0.9997 C.3     1  LIG1        0.0000
     14 C14         6.6150    0.9993    1.0006 C.2     1  LIG1        0.0000
     15 N15         7.3778   -0.0665    1.0022 N.2     1  LIG1        0.0000
     16 C16         8.6513    0.4084    1.0076 C.2     1  LIG1        0.0000
     17 C17         9.9208   -0.4279    1.0127 C.3     1  LIG1        0.0000
     18 C18        10.7401   -0.1128   -0.2282 C.3     1  LIG1        0.0000
     19 C19        10.7361   -0.1037    2.2539 C.3     1  LIG1        0.0000
     20 N20         8.5858    1.7152    1.0027 N.2     1  LIG1        0.0000
     21 O21         7.3718    2.0695    0.9973 O.2     1  LIG1        0.0000
     22 C22         4.4718   -0.2103    1.0045 C.3     1  LIG1        0.0000
     23 C23         3.0806   -0.2129    1.0054 C.3     1  LIG1        0.0000
     24 C24        -1.4903   -1.5192    0.0135 C.3     1  LIG1        0.0000
     25 C25        -2.7423   -1.5936   -0.5877 C.3     1  LIG1        0.0000
     26 S26        -3.3869   -3.1417   -1.0495 S.O2    1  LIG1        0.0000
     27 O27        -3.8417   -3.0845   -2.4146 O.2     1  LIG1        0.0000
     28 O28        -2.3610   -4.1447   -0.9270 O.2     1  LIG1        0.0000
     29 N29        -4.7378   -3.5524    0.0024 N.3     1  LIG1        0.0000
     30 C30        -5.8150   -2.5689   -0.2066 C.3     1  LIG1        0.0000
     31 C31        -7.0231   -2.7857    0.6962 C.3     1  LIG1        0.0000
     32 C32        -6.7656   -2.3637    2.1373 C.3     1  LIG1        0.0000
     33 C33        -6.2524   -3.4890    3.0244 C.3     1  LIG1        0.0000
     34 C34        -5.2710   -4.4061    2.3083 C.3     1  LIG1        0.0000
     35 C35        -4.2768   -3.6888    1.3970 C.3     1  LIG1        0.0000
     36 H          -6.2507    0.5481   -2.0345 H       1  LIG1        0.0000
     37 H          -5.5093    1.1574   -0.7132 H       1  LIG1        0.0000
     38 H          -4.8122    1.3068   -2.1823 H       1  LIG1        0.0000
     39 H          -3.5097    1.6348   -0.6227 H       1  LIG1        0.0000
     40 H          -1.3539    1.7740    0.4134 H       1  LIG1        0.0000
     41 H           0.5000    1.8660    0.9961 H       1  LIG1        0.0000
     42 H           2.5816    3.0760    0.9903 H       1  LIG1        0.0000
     43 H           4.9788    3.0681    0.9919 H       1  LIG1        0.0000
     44 H           9.6805   -1.3986    1.0159 H       1  LIG1        0.0000
     45 H          11.5752   -0.6629   -0.2248 H       1  LIG1        0.0000
     46 H          10.2037   -0.3261   -1.0448 H       1  LIG1        0.0000
     47 H          10.9804    0.8579   -0.2314 H       1  LIG1        0.0000
     48 H          11.5712   -0.6538    2.2573 H       1  LIG1        0.0000
     49 H          10.9764    0.8670    2.2508 H       1  LIG1        0.0000
     50 H          10.1971   -0.3110    3.0703 H       1  LIG1        0.0000
     51 H           4.9737   -1.0752    1.0073 H       1  LIG1        0.0000
     52 H           2.5760   -1.0763    1.0098 H       1  LIG1        0.0000
     53 H          -0.9580   -2.3490    0.1814 H       1  LIG1        0.0000
     54 H          -6.1168   -2.6281   -1.1582 H       1  LIG1        0.0000
     55 H          -5.4479   -1.6557   -0.0296 H       1  LIG1        0.0000
     56 H          -7.2601   -3.7572    0.6851 H       1  LIG1        0.0000
     57 H          -7.7892   -2.2516    0.3387 H       1  LIG1        0.0000
     58 H          -7.6226   -2.0232    2.5240 H       1  LIG1        0.0000
     59 H          -6.0863   -1.6298    2.1343 H       1  LIG1        0.0000
     60 H          -5.7936   -3.0869    3.8167 H       1  LIG1        0.0000
     61 H          -7.0324   -4.0340    3.3319 H       1  LIG1        0.0000
     62 H          -4.7529   -4.9090    3.0001 H       1  LIG1        0.0000
     63 H          -5.7957   -5.0500    1.7514 H       1  LIG1        0.0000
     64 H          -4.1143   -2.7738    1.7662 H       1  LIG1        0.0000
     65 H          -3.4203   -4.2050    1.3968 H       1  LIG1        0.0000
@<TRIPOS>BOND
     1     1     2    1
     2     2     3    1
     3     3     4   ar
     4     4     5   ar
     5     5     6   ar
     6     6     7    1
     7     7     8    2
     8     7     9   am
     9     9    10    1
    10    10    11   ar
    11    11    12   ar
    12    12    13   ar
    13    13    14    1
    14    14    15    2
    15    15    16    1
    16    16    17    1
    17    17    18    1
    18    17    19    1
    19    16    20    2
    20    20    21    1
    21    21    14    1
    22    13    22   ar
    23    22    23   ar
    24    23    10   ar
    25     6    24   ar
    26    24    25   ar
    27    25     3   ar
    28    25    26    1
    29    26    27    2
    30    26    28    2
    31    26    29    1
    32    29    30    1
    33    30    31    1
    34    31    32    1
    35    32    33    1
    36    33    34    1
    37    34    35    1
    38    35    29    1
    39     1    36    1
    40     1    37    1
    41     1    38    1
    42     4    39    1
    43     5    40    1
    44     9    41    1
    45    11    42    1
    46    12    43    1
    47    17    44    1
    48    18    45    1
    49    18    46    1
    50    18    47    1
    51    19    48    1
    52    19    49    1
    53    19    50    1
    54    22    51    1
    55    23    52    1
    56    24    53    1
    57    30    54    1
    58    30    55    1
    59    31    56    1
    60    31    57    1
    61    32    58    1
    62    32    59    1
    63    33    60    1
    64    33    61    1
    65    34    62    1
    66    34    63    1
    67    35    64    1
    68    35    65    1
