@<TRIPOS>MOLECULE
*****
 65 68 0 0 0
SMALL
USER_CHARGES

@<TRIPOS>ATOM
      1 C1         -4.7297   -0.2224   -2.7913 C.3     1  LIG1        0.0000
      2 O2         -4.6953   -0.5216   -1.4036 O.2     1  LIG1        0.0000
      3 C3         -3.4806   -0.4390   -0.8213 C.3     1  LIG1        0.0000
      4 C4         -2.4728    0.2997   -1.4328 C.3     1  LIG1        0.0000
      5 C5         -1.2226    0.3806   -0.8277 C.3     1  LIG1        0.0000
      6 C6         -0.9895   -0.2734    0.3778 C.3     1  LIG1        0.0000
      7 C7          0.3150   -0.1864    1.0054 C.2     1  LIG1        0.0000
      8 O8          0.7944   -1.1537    1.5294 O.2     1  LIG1        0.0000
      9 N9          1.0000    1.0000    1.0000 N.am    1  LIG1        0.0000
     10 C10         2.4002    1.0000    1.0000 C.3     1  LIG1        0.0000
     11 C11         3.0838    2.2112    0.9945 C.3     1  LIG1        0.0000
     12 C12         4.4746    2.2046    0.9949 C.3     1  LIG1        0.0000
     13 C13         5.1642    0.9958    0.9997 C.3     1  LIG1        0.0000
     14 C14         6.6150    0.9993    1.0006 C.2     1  LIG1        0.0000
     15 N15         7.3776    0.1826    0.3157 N.2     1  LIG1        0.0000
     16 C16         8.6513    0.5441    0.6234 C.2     1  LIG1        0.0000
     17 C17         9.9206   -0.0986    0.0880 C.3     1  LIG1        0.0000
     18 C18        11.1322    0.6067    0.6753 C.3     1  LIG1        0.0000
     19 C19         9.9495   -1.5668    0.4803 C.3     1  LIG1        0.0000
     20 N20         8.5859    1.5483    1.4597 N.2     1  LIG1        0.0000
     21 O21         7.3720    1.8220    1.6849 O.2     1  LIG1        0.0000
     22 C22         4.4718   -0.2103    1.0045 C.3     1  LIG1        0.0000
     23 C23         3.0806   -0.2129    1.0054 C.3     1  LIG1        0.0000
     24 C24        -1.9950   -1.0129    0.9924 C.3     1  LIG1        0.0000
     25 C25        -3.2431   -1.0909    0.3837 C.3     1  LIG1        0.0000
     26 S26        -4.5141   -2.0093    1.1366 S.O2    1  LIG1        0.0000
     27 O27        -5.7081   -1.2075    1.2080 O.2     1  LIG1        0.0000
     28 O28        -4.7764   -3.1927    0.3592 O.2     1  LIG1        0.0000
     29 N29        -4.0203   -2.4721    2.7611 N.3     1  LIG1        0.0000
     30 C30        -4.2935   -1.3808    3.7063 C.3     1  LIG1        0.0000
     31 C31        -3.5723   -1.5152    5.0445 C.3     1  LIG1        0.0000
     32 C32        -4.3577   -2.2587    6.1158 C.3     1  LIG1        0.0000
     33 C33        -5.1158   -3.4756    5.6001 C.3     1  LIG1        0.0000
     34 C34        -4.3687   -4.2369    4.5135 C.3     1  LIG1        0.0000
     35 C35        -4.6794   -3.7457    3.1040 C.3     1  LIG1        0.0000
     36 H          -5.6670   -0.3107   -3.1282 H       1  LIG1        0.0000
     37 H          -4.4094    0.7134   -2.9385 H       1  LIG1        0.0000
     38 H          -4.1368   -0.8591   -3.2843 H       1  LIG1        0.0000
     39 H          -2.6453    0.7682   -2.2993 H       1  LIG1        0.0000
     40 H          -0.4915    0.9090   -1.2593 H       1  LIG1        0.0000
     41 H           0.5000    1.8660    0.9961 H       1  LIG1        0.0000
     42 H           2.5816    3.0760    0.9903 H       1  LIG1        0.0000
     43 H           4.9788    3.0681    0.9919 H       1  LIG1        0.0000
     44 H           9.9395   -0.0195   -0.9087 H       1  LIG1        0.0000
     45 H          11.9672    0.1839    0.3231 H       1  LIG1        0.0000
     46 H          11.1132    1.5726    0.4172 H       1  LIG1        0.0000
     47 H          11.1133    0.5275    1.6720 H       1  LIG1        0.0000
     48 H          10.7845   -1.9896    0.1281 H       1  LIG1        0.0000
     49 H           9.9306   -1.6460    1.4770 H       1  LIG1        0.0000
     50 H           9.1523   -2.0308    0.0939 H       1  LIG1        0.0000
     51 H           4.9737   -1.0752    1.0073 H       1  LIG1        0.0000
     52 H           2.5760   -1.0763    1.0098 H       1  LIG1        0.0000
     53 H          -1.8229   -1.4815    1.8589 H       1  LIG1        0.0000
     54 H          -5.2777   -1.3572    3.8818 H       1  LIG1        0.0000
     55 H          -4.0098   -0.5206    3.2825 H       1  LIG1        0.0000
     56 H          -3.3730   -0.5964    5.3851 H       1  LIG1        0.0000
     57 H          -2.7152   -2.0063    4.8889 H       1  LIG1        0.0000
     58 H          -5.0182   -1.6245    6.5178 H       1  LIG1        0.0000
     59 H          -3.7168   -2.5634    6.8204 H       1  LIG1        0.0000
     60 H          -5.2788   -4.0962    6.3671 H       1  LIG1        0.0000
     61 H          -5.9917   -3.1691    5.2274 H       1  LIG1        0.0000
     62 H          -3.3869   -4.1364    4.6746 H       1  LIG1        0.0000
     63 H          -4.6194   -5.2030    4.5745 H       1  LIG1        0.0000
     64 H          -4.3777   -4.4425    2.4532 H       1  LIG1        0.0000
     65 H          -5.6683   -3.6209    3.0240 H       1  LIG1        0.0000
@<TRIPOS>BOND
     1     1     2    1
     2     2     3    1
     3     3     4   ar
     4     4     5   ar
     5     5     6   ar
     6     6     7    1
     7     7     8    2
     8     7     9   am
     9     9    10    1
    10    10    11   ar
    11    11    12   ar
    12    12    13   ar
    13    13    14    1
    14    14    15    2
    15    15    16    1
    16    16    17    1
    17    17    18    1
    18    17    19    1
    19    16    20    2
    20    20    21    1
    21    21    14    1
    22    13    22   ar
    23    22    23   ar
    24    23    10   ar
    25     6    24   ar
    26    24    25   ar
    27    25     3   ar
    28    25    26    1
    29    26    27    2
    30    26    28    2
    31    26    29    1
    32    29    30    1
    33    30    31    1
    34    31    32    1
    35    32    33    1
    36    33    34    1
    37    34    35    1
    38    35    29    1
    39     1    36    1
    40     1    37    1
    41     1    38    1
    42     4    39    1
    43     5    40    1
    44     9    41    1
    45    11    42    1
    46    12    43    1
    47    17    44    1
    48    18    45    1
    49    18    46    1
    50    18    47    1
    51    19    48    1
    52    19    49    1
    53    19    50    1
    54    22    51    1
    55    23    52    1
    56    24    53    1
    57    30    54    1
    58    30    55    1
    59    31    56    1
    60    31    57    1
    61    32    58    1
    62    32    59    1
    63    33    60    1
    64    33    61    1
    65    34    62    1
    66    34    63    1
    67    35    64    1
    68    35    65    1
