@<TRIPOS>MOLECULE
*****
 65 68 0 0 0
SMALL
USER_CHARGES

@<TRIPOS>ATOM
      1 C1         -4.8341    0.2129    4.6376 C.3     1  LIG1        0.0000
      2 O2         -4.6954   -0.4995    3.4171 O.2     1  LIG1        0.0000
      3 C3         -3.4805   -0.4225    2.8343 C.3     1  LIG1        0.0000
      4 C4         -2.4726    0.3214    3.4394 C.3     1  LIG1        0.0000
      5 C5         -1.2225    0.3970    2.8333 C.3     1  LIG1        0.0000
      6 C6         -0.9895   -0.2677    1.6337 C.3     1  LIG1        0.0000
      7 C7          0.3150   -0.1864    1.0054 C.2     1  LIG1        0.0000
      8 O8          0.7944   -1.1584    0.4902 O.2     1  LIG1        0.0000
      9 N9          1.0000    1.0000    1.0000 N.am    1  LIG1        0.0000
     10 C10         2.4002    1.0000    1.0000 C.3     1  LIG1        0.0000
     11 C11         3.0838    2.2112    0.9945 C.3     1  LIG1        0.0000
     12 C12         4.4746    2.2046    0.9949 C.3     1  LIG1        0.0000
     13 C13         5.1642    0.9958    0.9997 C.3     1  LIG1        0.0000
     14 C14         6.6150    0.9993    1.0006 C.2     1  LIG1        0.0000
     15 N15         7.3778   -0.0665    1.0022 N.2     1  LIG1        0.0000
     16 C16         8.6513    0.4084    1.0076 C.2     1  LIG1        0.0000
     17 C17         9.9208   -0.4279    1.0127 C.3     1  LIG1        0.0000
     18 C18         9.6623   -1.7456    0.3006 C.3     1  LIG1        0.0000
     19 C19        11.0278    0.3272    0.2952 C.3     1  LIG1        0.0000
     20 N20         8.5858    1.7152    1.0027 N.2     1  LIG1        0.0000
     21 O21         7.3718    2.0695    0.9973 O.2     1  LIG1        0.0000
     22 C22         4.4718   -0.2103    1.0045 C.3     1  LIG1        0.0000
     23 C23         3.0806   -0.2129    1.0054 C.3     1  LIG1        0.0000
     24 C24        -1.9950   -1.0128    1.0259 C.3     1  LIG1        0.0000
     25 C25        -3.2430   -1.0855    1.6354 C.3     1  LIG1        0.0000
     26 S26        -4.5132   -2.0129    0.8923 S.O2    1  LIG1        0.0000
     27 O27        -5.0944   -2.8987    1.8676 O.2     1  LIG1        0.0000
     28 O28        -5.5264   -1.1221    0.3888 O.2     1  LIG1        0.0000
     29 N29        -3.8497   -2.9574   -0.4362 N.3     1  LIG1        0.0000
     30 C30        -2.8807   -3.9386    0.0712 C.3     1  LIG1        0.0000
     31 C31        -1.9767   -4.5393   -1.0015 C.3     1  LIG1        0.0000
     32 C32        -2.5087   -5.8166   -1.6362 C.3     1  LIG1        0.0000
     33 C33        -4.0076   -5.7987   -1.9090 C.3     1  LIG1        0.0000
     34 C34        -4.5251   -4.4364   -2.3501 C.3     1  LIG1        0.0000
     35 C35        -4.9687   -3.5503   -1.1915 C.3     1  LIG1        0.0000
     36 H          -5.7630    0.0950    4.9887 H       1  LIG1        0.0000
     37 H          -4.1782   -0.1390    5.3054 H       1  LIG1        0.0000
     38 H          -4.6589    1.1845    4.4783 H       1  LIG1        0.0000
     39 H          -2.6450    0.7973    4.3018 H       1  LIG1        0.0000
     40 H          -0.4915    0.9293    3.2602 H       1  LIG1        0.0000
     41 H           0.5000    1.8660    0.9961 H       1  LIG1        0.0000
     42 H           2.5816    3.0760    0.9903 H       1  LIG1        0.0000
     43 H           4.9788    3.0681    0.9919 H       1  LIG1        0.0000
     44 H          10.1976   -0.6078    1.9567 H       1  LIG1        0.0000
     45 H          10.4974   -2.2957    0.3040 H       1  LIG1        0.0000
     46 H           8.9340   -2.2423    0.7727 H       1  LIG1        0.0000
     47 H           9.3855   -1.5657   -0.6433 H       1  LIG1        0.0000
     48 H          11.8629   -0.2230    0.2986 H       1  LIG1        0.0000
     49 H          10.7510    0.5071   -0.6487 H       1  LIG1        0.0000
     50 H          11.1979    1.1941    0.7637 H       1  LIG1        0.0000
     51 H           4.9737   -1.0752    1.0073 H       1  LIG1        0.0000
     52 H           2.5760   -1.0763    1.0098 H       1  LIG1        0.0000
     53 H          -1.8230   -1.4889    0.1635 H       1  LIG1        0.0000
     54 H          -3.3872   -4.6827    0.5069 H       1  LIG1        0.0000
     55 H          -2.3030   -3.4861    0.7505 H       1  LIG1        0.0000
     56 H          -1.0911   -4.7436   -0.5845 H       1  LIG1        0.0000
     57 H          -1.8557   -3.8589   -1.7243 H       1  LIG1        0.0000
     58 H          -2.3107   -6.5792   -1.0203 H       1  LIG1        0.0000
     59 H          -2.0331   -5.9574   -2.5045 H       1  LIG1        0.0000
     60 H          -4.2066   -6.4622   -2.6302 H       1  LIG1        0.0000
     61 H          -4.4855   -6.0634   -1.0714 H       1  LIG1        0.0000
     62 H          -3.7955   -3.9664   -2.8469 H       1  LIG1        0.0000
     63 H          -5.3062   -4.5764   -2.9587 H       1  LIG1        0.0000
     64 H          -5.5301   -2.8085   -1.5584 H       1  LIG1        0.0000
     65 H          -5.5160   -4.1030   -0.5630 H       1  LIG1        0.0000
@<TRIPOS>BOND
     1     1     2    1
     2     2     3    1
     3     3     4   ar
     4     4     5   ar
     5     5     6   ar
     6     6     7    1
     7     7     8    2
     8     7     9   am
     9     9    10    1
    10    10    11   ar
    11    11    12   ar
    12    12    13   ar
    13    13    14    1
    14    14    15    2
    15    15    16    1
    16    16    17    1
    17    17    18    1
    18    17    19    1
    19    16    20    2
    20    20    21    1
    21    21    14    1
    22    13    22   ar
    23    22    23   ar
    24    23    10   ar
    25     6    24   ar
    26    24    25   ar
    27    25     3   ar
    28    25    26    1
    29    26    27    2
    30    26    28    2
    31    26    29    1
    32    29    30    1
    33    30    31    1
    34    31    32    1
    35    32    33    1
    36    33    34    1
    37    34    35    1
    38    35    29    1
    39     1    36    1
    40     1    37    1
    41     1    38    1
    42     4    39    1
    43     5    40    1
    44     9    41    1
    45    11    42    1
    46    12    43    1
    47    17    44    1
    48    18    45    1
    49    18    46    1
    50    18    47    1
    51    19    48    1
    52    19    49    1
    53    19    50    1
    54    22    51    1
    55    23    52    1
    56    24    53    1
    57    30    54    1
    58    30    55    1
    59    31    56    1
    60    31    57    1
    61    32    58    1
    62    32    59    1
    63    33    60    1
    64    33    61    1
    65    34    62    1
    66    34    63    1
    67    35    64    1
    68    35    65    1
