@<TRIPOS>MOLECULE
*****
 65 68 0 0 0
SMALL
USER_CHARGES

@<TRIPOS>ATOM
      1 C1         -5.3662    0.7376    3.6008 C.3     1  LIG1        0.0000
      2 O2         -4.6945   -0.5002    3.4189 O.2     1  LIG1        0.0000
      3 C3         -3.4810   -0.4222    2.8334 C.3     1  LIG1        0.0000
      4 C4         -3.1467    0.7048    2.0895 C.3     1  LIG1        0.0000
      5 C5         -1.8943    0.7789    1.4881 C.3     1  LIG1        0.0000
      6 C6         -0.9895   -0.2677    1.6337 C.3     1  LIG1        0.0000
      7 C7          0.3150   -0.1864    1.0054 C.2     1  LIG1        0.0000
      8 O8          0.7944   -1.1584    0.4902 O.2     1  LIG1        0.0000
      9 N9          1.0000    1.0000    1.0000 N.am    1  LIG1        0.0000
     10 C10         2.4002    1.0000    1.0000 C.3     1  LIG1        0.0000
     11 C11         3.0838    2.2112    0.9945 C.3     1  LIG1        0.0000
     12 C12         4.4746    2.2046    0.9949 C.3     1  LIG1        0.0000
     13 C13         5.1642    0.9958    0.9997 C.3     1  LIG1        0.0000
     14 C14         6.6150    0.9993    1.0006 C.2     1  LIG1        0.0000
     15 N15         7.3778   -0.0665    1.0022 N.2     1  LIG1        0.0000
     16 C16         8.6513    0.4084    1.0076 C.2     1  LIG1        0.0000
     17 C17         9.9208   -0.4279    1.0127 C.3     1  LIG1        0.0000
     18 C18        11.1323    0.4901    1.0113 C.3     1  LIG1        0.0000
     19 C19         9.9477   -1.3004    2.2571 C.3     1  LIG1        0.0000
     20 N20         8.5858    1.7152    1.0027 N.2     1  LIG1        0.0000
     21 O21         7.3718    2.0695    0.9973 O.2     1  LIG1        0.0000
     22 C22         4.4718   -0.2103    1.0045 C.3     1  LIG1        0.0000
     23 C23         3.0806   -0.2129    1.0054 C.3     1  LIG1        0.0000
     24 C24        -1.3203   -1.3962    2.3772 C.3     1  LIG1        0.0000
     25 C25        -2.5733   -1.4658    2.9765 C.3     1  LIG1        0.0000
     26 S26        -3.0058   -2.8676    3.9113 S.O2    1  LIG1        0.0000
     27 O27        -4.4286   -3.0754    3.8347 O.2     1  LIG1        0.0000
     28 O28        -2.3231   -4.0226    3.3883 O.2     1  LIG1        0.0000
     29 N29        -2.5386   -2.6202    5.5900 N.3     1  LIG1        0.0000
     30 C30        -3.6237   -1.8580    6.2456 C.3     1  LIG1        0.0000
     31 C31        -3.3244   -1.2456    7.6061 C.3     1  LIG1        0.0000
     32 C32        -2.3331   -0.0931    7.5611 C.3     1  LIG1        0.0000
     33 C33        -0.8912   -0.5607    7.7091 C.3     1  LIG1        0.0000
     34 C34        -0.5744   -1.8721    6.9919 C.3     1  LIG1        0.0000
     35 C35        -1.2161   -1.9726    5.6152 C.3     1  LIG1        0.0000
     36 H          -6.2503    0.5759    4.0391 H       1  LIG1        0.0000
     37 H          -4.8118    1.3359    4.1794 H       1  LIG1        0.0000
     38 H          -5.5094    1.1729    2.7119 H       1  LIG1        0.0000
     39 H          -3.8005    1.4546    1.9879 H       1  LIG1        0.0000
     40 H          -1.6445    1.5846    0.9511 H       1  LIG1        0.0000
     41 H           0.5000    1.8660    0.9961 H       1  LIG1        0.0000
     42 H           2.5816    3.0760    0.9903 H       1  LIG1        0.0000
     43 H           4.9788    3.0681    0.9919 H       1  LIG1        0.0000
     44 H           9.9412   -1.0079    0.1984 H       1  LIG1        0.0000
     45 H          11.9674   -0.0600    1.0147 H       1  LIG1        0.0000
     46 H          11.1146    1.0642    0.1927 H       1  LIG1        0.0000
     47 H          11.1120    1.0702    1.8257 H       1  LIG1        0.0000
     48 H          10.7828   -1.8505    2.2604 H       1  LIG1        0.0000
     49 H           9.9274   -0.7204    3.0714 H       1  LIG1        0.0000
     50 H           9.1507   -1.9043    2.2580 H       1  LIG1        0.0000
     51 H           4.9737   -1.0752    1.0073 H       1  LIG1        0.0000
     52 H           2.5760   -1.0763    1.0098 H       1  LIG1        0.0000
     53 H          -0.6667   -2.1462    2.4791 H       1  LIG1        0.0000
     54 H          -4.3997   -2.4783    6.3598 H       1  LIG1        0.0000
     55 H          -3.8806   -1.1123    5.6308 H       1  LIG1        0.0000
     56 H          -2.9494   -1.9600    8.1969 H       1  LIG1        0.0000
     57 H          -4.1818   -0.9079    7.9944 H       1  LIG1        0.0000
     58 H          -2.5432    0.5404    8.3058 H       1  LIG1        0.0000
     59 H          -2.4292    0.3790    6.6848 H       1  LIG1        0.0000
     60 H          -0.2927    0.1500    7.3395 H       1  LIG1        0.0000
     61 H          -0.7009   -0.6835    8.6831 H       1  LIG1        0.0000
     62 H           0.4174   -1.9451    6.8863 H       1  LIG1        0.0000
     63 H          -0.9065   -2.6299    7.5535 H       1  LIG1        0.0000
     64 H          -1.3174   -1.0464    5.2520 H       1  LIG1        0.0000
     65 H          -0.6027   -2.4970    5.0247 H       1  LIG1        0.0000
@<TRIPOS>BOND
     1     1     2    1
     2     2     3    1
     3     3     4   ar
     4     4     5   ar
     5     5     6   ar
     6     6     7    1
     7     7     8    2
     8     7     9   am
     9     9    10    1
    10    10    11   ar
    11    11    12   ar
    12    12    13   ar
    13    13    14    1
    14    14    15    2
    15    15    16    1
    16    16    17    1
    17    17    18    1
    18    17    19    1
    19    16    20    2
    20    20    21    1
    21    21    14    1
    22    13    22   ar
    23    22    23   ar
    24    23    10   ar
    25     6    24   ar
    26    24    25   ar
    27    25     3   ar
    28    25    26    1
    29    26    27    2
    30    26    28    2
    31    26    29    1
    32    29    30    1
    33    30    31    1
    34    31    32    1
    35    32    33    1
    36    33    34    1
    37    34    35    1
    38    35    29    1
    39     1    36    1
    40     1    37    1
    41     1    38    1
    42     4    39    1
    43     5    40    1
    44     9    41    1
    45    11    42    1
    46    12    43    1
    47    17    44    1
    48    18    45    1
    49    18    46    1
    50    18    47    1
    51    19    48    1
    52    19    49    1
    53    19    50    1
    54    22    51    1
    55    23    52    1
    56    24    53    1
    57    30    54    1
    58    30    55    1
    59    31    56    1
    60    31    57    1
    61    32    58    1
    62    32    59    1
    63    33    60    1
    64    33    61    1
    65    34    62    1
    66    34    63    1
    67    35    64    1
    68    35    65    1
