@<TRIPOS>MOLECULE
*****
 24 25 0 0 0
SMALL
USER_CHARGES

@<TRIPOS>ATOM
      1 C1          1.8776    0.1224    0.1224 C.3     1  LIG1        0.0000
      2 C2          1.0000    1.0000    1.0000 C.3     1  LIG1        0.0000
      3 C3          0.1224    1.8776    0.1224 C.3     1  LIG1        0.0000
      4 C4          1.8778    1.8778    1.8778 C.2     1  LIG1        0.0000
      5 C5          2.7899    1.4356    2.7866 C.2     1  LIG1        0.0000
      6 C6          3.3638    2.5913    3.3607 C.ar    1  LIG1        0.0000
      7 C7          4.3339    2.8109    4.3364 C.ar    1  LIG1        0.0000
      8 C8          4.7172    4.0919    4.7294 C.ar    1  LIG1        0.0000
      9 Br9         6.0829    4.4163    6.1005 Br      1  LIG1        0.0000
     10 C10         4.0866    5.1617    4.1032 C.ar    1  LIG1        0.0000
     11 C11         3.1172    4.9485    3.1288 C.ar    1  LIG1        0.0000
     12 C12         2.7527    3.6590    2.7545 C.ar    1  LIG1        0.0000
     13 O13         1.8857    3.1873    1.8857 O.2     1  LIG1        0.0000
     14 H           1.3002   -0.4549   -0.4549 H       1  LIG1        0.0000
     15 H           2.4549    0.6998   -0.4549 H       1  LIG1        0.0000
     16 H           2.4549   -0.4549    0.6998 H       1  LIG1        0.0000
     17 H           0.4226    0.4226    1.5774 H       1  LIG1        0.0000
     18 H          -0.4549    1.3002   -0.4549 H       1  LIG1        0.0000
     19 H          -0.4549    2.4549    0.6998 H       1  LIG1        0.0000
     20 H           0.6998    2.4549   -0.4549 H       1  LIG1        0.0000
     21 H           3.0092    0.4845    3.0038 H       1  LIG1        0.0000
     22 H           4.7701    2.0223    4.7697 H       1  LIG1        0.0000
     23 H           4.3335    6.0970    4.3570 H       1  LIG1        0.0000
     24 H           2.6763    5.7323    2.6915 H       1  LIG1        0.0000
@<TRIPOS>BOND
     1     1     2    1
     2     2     3    1
     3     2     4    1
     4     4     5    2
     5     5     6    1
     6     6     7   ar
     7     7     8   ar
     8     8     9    1
     9     8    10   ar
    10    10    11   ar
    11    11    12   ar
    12    12     6   ar
    13    12    13    1
    14    13     4    1
    15     1    14    1
    16     1    15    1
    17     1    16    1
    18     2    17    1
    19     3    18    1
    20     3    19    1
    21     3    20    1
    22     5    21    1
    23     7    22    1
    24    10    23    1
    25    11    24    1
