@<TRIPOS>MOLECULE
*****
 24 25 0 0 0
SMALL
USER_CHARGES

@<TRIPOS>ATOM
      1 C1          1.8776    0.1224    0.1224 C.3     1  LIG1        0.0000
      2 C2          1.0000    1.0000    1.0000 C.3     1  LIG1        0.0000
      3 C3          0.1224    1.8776    0.1224 C.3     1  LIG1        0.0000
      4 C4          1.8778    1.8778    1.8778 C.2     1  LIG1        0.0000
      5 C5          3.2391    1.8881    1.8849 C.2     1  LIG1        0.0000
      6 C6          3.6193    2.8498    2.8467 C.ar    1  LIG1        0.0000
      7 C7          4.8432    3.3177    3.3203 C.ar    1  LIG1        0.0000
      8 C8          4.9338    4.2963    4.3085 C.ar    1  LIG1        0.0000
      9 Br9         6.6502    4.9660    4.9836 Br      1  LIG1        0.0000
     10 C10         3.7393    4.7978    4.8144 C.ar    1  LIG1        0.0000
     11 C11         2.5145    4.3342    4.3458 C.ar    1  LIG1        0.0000
     12 C12         2.4518    3.3563    3.3581 C.ar    1  LIG1        0.0000
     13 O13         1.4518    2.7534    2.7534 O.2     1  LIG1        0.0000
     14 H           1.3002   -0.4549   -0.4549 H       1  LIG1        0.0000
     15 H           2.4549    0.6998   -0.4549 H       1  LIG1        0.0000
     16 H           2.4549   -0.4549    0.6998 H       1  LIG1        0.0000
     17 H           0.4226    0.4226    1.5774 H       1  LIG1        0.0000
     18 H          -0.4549    1.3002   -0.4549 H       1  LIG1        0.0000
     19 H          -0.4549    2.4549    0.6998 H       1  LIG1        0.0000
     20 H           0.6998    2.4549   -0.4549 H       1  LIG1        0.0000
     21 H           3.8472    1.3278    1.3225 H       1  LIG1        0.0000
     22 H           5.6857    2.9383    2.9379 H       1  LIG1        0.0000
     23 H           3.7613    5.5013    5.5248 H       1  LIG1        0.0000
     24 H           1.6678    4.7086    4.7238 H       1  LIG1        0.0000
@<TRIPOS>BOND
     1     1     2    1
     2     2     3    1
     3     2     4    1
     4     4     5    2
     5     5     6    1
     6     6     7   ar
     7     7     8   ar
     8     8     9    1
     9     8    10   ar
    10    10    11   ar
    11    11    12   ar
    12    12     6   ar
    13    12    13    1
    14    13     4    1
    15     1    14    1
    16     1    15    1
    17     1    16    1
    18     2    17    1
    19     3    18    1
    20     3    19    1
    21     3    20    1
    22     5    21    1
    23     7    22    1
    24    10    23    1
    25    11    24    1
