@<TRIPOS>MOLECULE
*****
 24 25 0 0 0
SMALL
USER_CHARGES

@<TRIPOS>ATOM
      1 C1          1.8776    0.1224    0.1224 C.3     1  LIG1        0.0000
      2 C2          1.0000    1.0000    1.0000 C.3     1  LIG1        0.0000
      3 C3          0.1224    1.8776    0.1224 C.3     1  LIG1        0.0000
      4 C4          1.8778    1.8778    1.8778 C.2     1  LIG1        0.0000
      5 C5          1.4356    2.7866    2.7899 C.2     1  LIG1        0.0000
      6 C6          2.5913    3.3607    3.3638 C.ar    1  LIG1        0.0000
      7 C7          2.8109    4.3364    4.3339 C.ar    1  LIG1        0.0000
      8 C8          4.0919    4.7294    4.7172 C.ar    1  LIG1        0.0000
      9 Br9         4.4163    6.1005    6.0829 Br      1  LIG1        0.0000
     10 C10         5.1617    4.1032    4.0866 C.ar    1  LIG1        0.0000
     11 C11         4.9485    3.1288    3.1172 C.ar    1  LIG1        0.0000
     12 C12         3.6590    2.7545    2.7527 C.ar    1  LIG1        0.0000
     13 O13         3.1873    1.8857    1.8857 O.2     1  LIG1        0.0000
     14 H           1.3002   -0.4549   -0.4549 H       1  LIG1        0.0000
     15 H           2.4549    0.6998   -0.4549 H       1  LIG1        0.0000
     16 H           2.4549   -0.4549    0.6998 H       1  LIG1        0.0000
     17 H           0.4226    0.4226    1.5774 H       1  LIG1        0.0000
     18 H          -0.4549    1.3002   -0.4549 H       1  LIG1        0.0000
     19 H          -0.4549    2.4549    0.6998 H       1  LIG1        0.0000
     20 H           0.6998    2.4549   -0.4549 H       1  LIG1        0.0000
     21 H           0.4845    3.0038    3.0092 H       1  LIG1        0.0000
     22 H           2.0223    4.7697    4.7701 H       1  LIG1        0.0000
     23 H           6.0970    4.3570    4.3335 H       1  LIG1        0.0000
     24 H           5.7323    2.6915    2.6763 H       1  LIG1        0.0000
@<TRIPOS>BOND
     1     1     2    1
     2     2     3    1
     3     2     4    1
     4     4     5    2
     5     5     6    1
     6     6     7   ar
     7     7     8   ar
     8     8     9    1
     9     8    10   ar
    10    10    11   ar
    11    11    12   ar
    12    12     6   ar
    13    12    13    1
    14    13     4    1
    15     1    14    1
    16     1    15    1
    17     1    16    1
    18     2    17    1
    19     3    18    1
    20     3    19    1
    21     3    20    1
    22     5    21    1
    23     7    22    1
    24    10    23    1
    25    11    24    1
