@<TRIPOS>MOLECULE
*****
 24 25 0 0 0
SMALL
USER_CHARGES

@<TRIPOS>ATOM
      1 C1          1.8776    0.1224    0.1224 C.3     1  LIG1        0.0000
      2 C2          1.0000    1.0000    1.0000 C.3     1  LIG1        0.0000
      3 C3          0.1224    1.8776    0.1224 C.3     1  LIG1        0.0000
      4 C4          1.8778    1.8778    1.8778 C.2     1  LIG1        0.0000
      5 C5          1.5555    3.1173    2.3393 C.2     1  LIG1        0.0000
      6 C6          2.6592    3.5495    3.1071 C.ar    1  LIG1        0.0000
      7 C7          2.9478    4.7078    3.8256 C.ar    1  LIG1        0.0000
      8 C8          4.1518    4.8809    4.5058 C.ar    1  LIG1        0.0000
      9 Br9         4.5710    6.5056    5.5231 Br      1  LIG1        0.0000
     10 C10         5.0712    3.8394    4.4409 C.ar    1  LIG1        0.0000
     11 C11         4.7888    2.6809    3.7248 C.ar    1  LIG1        0.0000
     12 C12         3.5787    2.5332    3.0544 C.ar    1  LIG1        0.0000
     13 O13         3.0710    1.5681    2.3195 O.2     1  LIG1        0.0000
     14 H           1.3002   -0.4549   -0.4549 H       1  LIG1        0.0000
     15 H           2.4549    0.6998   -0.4549 H       1  LIG1        0.0000
     16 H           2.4549   -0.4549    0.6998 H       1  LIG1        0.0000
     17 H           0.4226    0.4226    1.5774 H       1  LIG1        0.0000
     18 H          -0.4549    1.3002   -0.4549 H       1  LIG1        0.0000
     19 H          -0.4549    2.4549    0.6998 H       1  LIG1        0.0000
     20 H           0.6998    2.4549   -0.4549 H       1  LIG1        0.0000
     21 H           0.7082    3.6204    2.1689 H       1  LIG1        0.0000
     22 H           2.2675    5.4402    3.8543 H       1  LIG1        0.0000
     23 H           5.9473    3.9246    4.9156 H       1  LIG1        0.0000
     24 H           5.4644    1.9444    3.6913 H       1  LIG1        0.0000
@<TRIPOS>BOND
     1     1     2    1
     2     2     3    1
     3     2     4    1
     4     4     5    2
     5     5     6    1
     6     6     7   ar
     7     7     8   ar
     8     8     9    1
     9     8    10   ar
    10    10    11   ar
    11    11    12   ar
    12    12     6   ar
    13    12    13    1
    14    13     4    1
    15     1    14    1
    16     1    15    1
    17     1    16    1
    18     2    17    1
    19     3    18    1
    20     3    19    1
    21     3    20    1
    22     5    21    1
    23     7    22    1
    24    10    23    1
    25    11    24    1
