@<TRIPOS>MOLECULE
*****
 24 25 0 0 0
SMALL
USER_CHARGES

@<TRIPOS>ATOM
      1 C1          1.8776    0.1224    0.1224 C.3     1  LIG1        0.0000
      2 C2          1.0000    1.0000    1.0000 C.3     1  LIG1        0.0000
      3 C3          0.1224    1.8776    0.1224 C.3     1  LIG1        0.0000
      4 C4          1.8778    1.8778    1.8778 C.2     1  LIG1        0.0000
      5 C5          3.1192    1.5574    2.3355 C.2     1  LIG1        0.0000
      6 C6          3.5513    2.6610    3.1035 C.ar    1  LIG1        0.0000
      7 C7          4.7064    2.9463    3.8285 C.ar    1  LIG1        0.0000
      8 C8          4.8739    4.1448    4.5199 C.ar    1  LIG1        0.0000
      9 Br9         6.4955    4.5609    5.5434 Br      1  LIG1        0.0000
     10 C10         3.8298    5.0616    4.4601 C.ar    1  LIG1        0.0000
     11 C11         2.6742    4.7821    3.7382 C.ar    1  LIG1        0.0000
     12 C12         2.5322    3.5776    3.0565 C.ar    1  LIG1        0.0000
     13 O13         1.5681    3.0710    2.3195 O.2     1  LIG1        0.0000
     14 H           1.3002   -0.4549   -0.4549 H       1  LIG1        0.0000
     15 H           2.4549    0.6998   -0.4549 H       1  LIG1        0.0000
     16 H           2.4549   -0.4549    0.6998 H       1  LIG1        0.0000
     17 H           0.4226    0.4226    1.5774 H       1  LIG1        0.0000
     18 H          -0.4549    1.3002   -0.4549 H       1  LIG1        0.0000
     19 H          -0.4549    2.4549    0.6998 H       1  LIG1        0.0000
     20 H           0.6998    2.4549   -0.4549 H       1  LIG1        0.0000
     21 H           3.6235    0.7113    2.1627 H       1  LIG1        0.0000
     22 H           5.4405    2.2678    3.8537 H       1  LIG1        0.0000
     23 H           3.9110    5.9337    4.9427 H       1  LIG1        0.0000
     24 H           1.9357    5.4557    3.7088 H       1  LIG1        0.0000
@<TRIPOS>BOND
     1     1     2    1
     2     2     3    1
     3     2     4    1
     4     4     5    2
     5     5     6    1
     6     6     7   ar
     7     7     8   ar
     8     8     9    1
     9     8    10   ar
    10    10    11   ar
    11    11    12   ar
    12    12     6   ar
    13    12    13    1
    14    13     4    1
    15     1    14    1
    16     1    15    1
    17     1    16    1
    18     2    17    1
    19     3    18    1
    20     3    19    1
    21     3    20    1
    22     5    21    1
    23     7    22    1
    24    10    23    1
    25    11    24    1
