@<TRIPOS>MOLECULE

  19   19
SMALL
USER_CHARGES
@<TRIPOS>ATOM
   1 F1           0.6787     5.3095    -1.1535 F            1    LIG   0.0000
   2 C2           1.1287     4.0634    -1.2705 C.3          1    LIG   0.0000
   3 F3           2.3586     4.0819    -1.7763 F            1    LIG   0.0000
   4 O4           1.1520     3.4466     0.0083 O.3          1    LIG   0.0000
   5 C5           1.1760     2.0963     0.0022 C.ar         1    LIG   0.0000
   6 C6          -0.0159     1.3796     0.0107 C.ar         1    LIG   0.0000
   7 Cl7         -1.5701     2.2470     0.0290 Cl           1    LIG   0.0000
   8 C8          -0.0145    -0.0114     0.0041 C.ar         1    LIG   0.0000
   9 C9           1.2054    -0.6795    -0.0110 C.ar         1    LIG   0.0000
  10 C10          1.2290    -2.1987    -0.0175 C.3          1    LIG   0.0000
  11 F11          0.6201    -2.6563     1.0728 F            1    LIG   0.0000
  12 F12          0.5980    -2.6473    -1.0990 F            1    LIG   0.0000
  13 C13          2.4111     0.0131    -0.0195 C.ar         1    LIG   0.0000
  14 C14          2.3819     1.4034    -0.0129 C.ar         1    LIG   0.0000
  15 Cl15         3.9065     2.3216    -0.0233 Cl           1    LIG   0.0000
  16 H            0.5258     3.5470    -1.8787 H            1    LIG   0.0000
  17 H           -0.8745    -0.5216     0.0102 H            1    LIG   0.0000
  18 H            2.1768    -2.5173    -0.0285 H            1    LIG   0.0000
  19 H            3.2817    -0.4788    -0.0301 H            1    LIG   0.0000
@<TRIPOS>BOND
   1        1        2 1
   2        2        3 1
   3        2        4 1
   4        4        5 1
   5        5        6 ar
   6        6        7 1
   7        6        8 ar
   8        8        9 ar
   9        9       10 1
  10       10       11 1
  11       10       12 1
  12        9       13 ar
  13       13       14 ar
  14       14        5 ar
  15       14       15 1
  16        2       16 1
  17        8       17 1
  18       10       18 1
  19       13       19 1

@<TRIPOS>MOLECULE

  19   19
SMALL
USER_CHARGES
@<TRIPOS>ATOM
   1 F1           0.6787     5.3095    -1.1535 F            1    LIG   0.0000
   2 C2           1.1287     4.0634    -1.2705 C.3          1    LIG   0.0000
   3 F3           2.3586     4.0819    -1.7763 F            1    LIG   0.0000
   4 O4           1.1520     3.4466     0.0083 O.3          1    LIG   0.0000
   5 C5           1.1760     2.0963     0.0022 C.ar         1    LIG   0.0000
   6 C6          -0.0159     1.3796     0.0107 C.ar         1    LIG   0.0000
   7 Cl7         -1.5701     2.2470     0.0290 Cl           1    LIG   0.0000
   8 C8          -0.0145    -0.0114     0.0041 C.ar         1    LIG   0.0000
   9 C9           1.2054    -0.6795    -0.0110 C.ar         1    LIG   0.0000
  10 C10          1.2290    -2.1987    -0.0175 C.3          1    LIG   0.0000
  11 F11          2.3280    -2.6277     0.5965 F            1    LIG   0.0000
  12 F12          0.1565    -2.6616     0.6185 F            1    LIG   0.0000
  13 C13          2.4111     0.0131    -0.0195 C.ar         1    LIG   0.0000
  14 C14          2.3819     1.4034    -0.0129 C.ar         1    LIG   0.0000
  15 Cl15         3.9065     2.3216    -0.0233 Cl           1    LIG   0.0000
  16 H            0.5258     3.5470    -1.8787 H            1    LIG   0.0000
  17 H           -0.8745    -0.5216     0.0102 H            1    LIG   0.0000
  18 H            1.2246    -2.5281    -0.9617 H            1    LIG   0.0000
  19 H            3.2817    -0.4788    -0.0301 H            1    LIG   0.0000
@<TRIPOS>BOND
   1        1        2 1
   2        2        3 1
   3        2        4 1
   4        4        5 1
   5        5        6 ar
   6        6        7 1
   7        6        8 ar
   8        8        9 ar
   9        9       10 1
  10       10       11 1
  11       10       12 1
  12        9       13 ar
  13       13       14 ar
  14       14        5 ar
  15       14       15 1
  16        2       16 1
  17        8       17 1
  18       10       18 1
  19       13       19 1

@<TRIPOS>MOLECULE

  19   19
SMALL
USER_CHARGES
@<TRIPOS>ATOM
   1 F1          -0.1107     4.0379    -1.7524 F            1    LIG   0.0000
   2 C2           1.1287     4.0634    -1.2705 C.3          1    LIG   0.0000
   3 F3           1.5363     5.3248    -1.1618 F            1    LIG   0.0000
   4 O4           1.1520     3.4466     0.0083 O.3          1    LIG   0.0000
   5 C5           1.1760     2.0963     0.0022 C.ar         1    LIG   0.0000
   6 C6          -0.0159     1.3796     0.0107 C.ar         1    LIG   0.0000
   7 Cl7         -1.5701     2.2470     0.0290 Cl           1    LIG   0.0000
   8 C8          -0.0145    -0.0114     0.0041 C.ar         1    LIG   0.0000
   9 C9           1.2054    -0.6795    -0.0110 C.ar         1    LIG   0.0000
  10 C10          1.2290    -2.1987    -0.0175 C.3          1    LIG   0.0000
  11 F11          0.6201    -2.6563     1.0728 F            1    LIG   0.0000
  12 F12          0.5980    -2.6473    -1.0990 F            1    LIG   0.0000
  13 C13          2.4111     0.0131    -0.0195 C.ar         1    LIG   0.0000
  14 C14          2.3819     1.4034    -0.0129 C.ar         1    LIG   0.0000
  15 Cl15         3.9065     2.3216    -0.0233 Cl           1    LIG   0.0000
  16 H            1.7376     3.5686    -1.8904 H            1    LIG   0.0000
  17 H           -0.8745    -0.5216     0.0102 H            1    LIG   0.0000
  18 H            2.1768    -2.5173    -0.0285 H            1    LIG   0.0000
  19 H            3.2817    -0.4788    -0.0301 H            1    LIG   0.0000
@<TRIPOS>BOND
   1        1        2 1
   2        2        3 1
   3        2        4 1
   4        4        5 1
   5        5        6 ar
   6        6        7 1
   7        6        8 ar
   8        8        9 ar
   9        9       10 1
  10       10       11 1
  11       10       12 1
  12        9       13 ar
  13       13       14 ar
  14       14        5 ar
  15       14       15 1
  16        2       16 1
  17        8       17 1
  18       10       18 1
  19       13       19 1

@<TRIPOS>MOLECULE

  19   19
SMALL
USER_CHARGES
@<TRIPOS>ATOM
   1 F1          -0.1107     4.0379    -1.7524 F            1    LIG   0.0000
   2 C2           1.1287     4.0634    -1.2705 C.3          1    LIG   0.0000
   3 F3           1.5363     5.3248    -1.1618 F            1    LIG   0.0000
   4 O4           1.1520     3.4466     0.0083 O.3          1    LIG   0.0000
   5 C5           1.1760     2.0963     0.0022 C.ar         1    LIG   0.0000
   6 C6          -0.0159     1.3796     0.0107 C.ar         1    LIG   0.0000
   7 Cl7         -1.5701     2.2470     0.0290 Cl           1    LIG   0.0000
   8 C8          -0.0145    -0.0114     0.0041 C.ar         1    LIG   0.0000
   9 C9           1.2054    -0.6795    -0.0110 C.ar         1    LIG   0.0000
  10 C10          1.2290    -2.1987    -0.0175 C.3          1    LIG   0.0000
  11 F11          2.3280    -2.6277     0.5965 F            1    LIG   0.0000
  12 F12          0.1565    -2.6616     0.6185 F            1    LIG   0.0000
  13 C13          2.4111     0.0131    -0.0195 C.ar         1    LIG   0.0000
  14 C14          2.3819     1.4034    -0.0129 C.ar         1    LIG   0.0000
  15 Cl15         3.9065     2.3216    -0.0233 Cl           1    LIG   0.0000
  16 H            1.7376     3.5686    -1.8904 H            1    LIG   0.0000
  17 H           -0.8745    -0.5216     0.0102 H            1    LIG   0.0000
  18 H            1.2246    -2.5281    -0.9617 H            1    LIG   0.0000
  19 H            3.2817    -0.4788    -0.0301 H            1    LIG   0.0000
@<TRIPOS>BOND
   1        1        2 1
   2        2        3 1
   3        2        4 1
   4        4        5 1
   5        5        6 ar
   6        6        7 1
   7        6        8 ar
   8        8        9 ar
   9        9       10 1
  10       10       11 1
  11       10       12 1
  12        9       13 ar
  13       13       14 ar
  14       14        5 ar
  15       14       15 1
  16        2       16 1
  17        8       17 1
  18       10       18 1
  19       13       19 1

@<TRIPOS>MOLECULE

  19   19
SMALL
USER_CHARGES
@<TRIPOS>ATOM
   1 F1           0.5372     5.3744    -0.9663 F            1    LIG   0.0000
   2 C2           0.4897     4.0513    -1.0926 C.3          1    LIG   0.0000
   3 F3           1.0906     3.6920    -2.2233 F            1    LIG   0.0000
   4 O4           1.1520     3.4466     0.0083 O.3          1    LIG   0.0000
   5 C5           1.1760     2.0963     0.0022 C.ar         1    LIG   0.0000
   6 C6          -0.0159     1.3796     0.0107 C.ar         1    LIG   0.0000
   7 Cl7         -1.5701     2.2470     0.0290 Cl           1    LIG   0.0000
   8 C8          -0.0145    -0.0114     0.0041 C.ar         1    LIG   0.0000
   9 C9           1.2054    -0.6795    -0.0110 C.ar         1    LIG   0.0000
  10 C10          1.2290    -2.1987    -0.0175 C.3          1    LIG   0.0000
  11 F11          0.1438    -2.6564    -0.6354 F            1    LIG   0.0000
  12 F12          2.3153    -2.6225    -0.6573 F            1    LIG   0.0000
  13 C13          2.4111     0.0131    -0.0195 C.ar         1    LIG   0.0000
  14 C14          2.3819     1.4034    -0.0129 C.ar         1    LIG   0.0000
  15 Cl15         3.9065     2.3216    -0.0233 Cl           1    LIG   0.0000
  16 H           -0.4644     3.7524    -1.1126 H            1    LIG   0.0000
  17 H           -0.8745    -0.5216     0.0102 H            1    LIG   0.0000
  18 H            1.2438    -2.5359     0.9238 H            1    LIG   0.0000
  19 H            3.2817    -0.4788    -0.0301 H            1    LIG   0.0000
@<TRIPOS>BOND
   1        1        2 1
   2        2        3 1
   3        2        4 1
   4        4        5 1
   5        5        6 ar
   6        6        7 1
   7        6        8 ar
   8        8        9 ar
   9        9       10 1
  10       10       11 1
  11       10       12 1
  12        9       13 ar
  13       13       14 ar
  14       14        5 ar
  15       14       15 1
  16        2       16 1
  17        8       17 1
  18       10       18 1
  19       13       19 1

@<TRIPOS>MOLECULE

  19   19
SMALL
USER_CHARGES
@<TRIPOS>ATOM
   1 F1           1.3056     5.1255    -1.4756 F            1    LIG   0.0000
   2 C2           1.9553     4.0768    -0.9786 C.3          1    LIG   0.0000
   3 F3           3.0966     4.4820    -0.4289 F            1    LIG   0.0000
   4 O4           1.1520     3.4466     0.0083 O.3          1    LIG   0.0000
   5 C5           1.1760     2.0963     0.0022 C.ar         1    LIG   0.0000
   6 C6          -0.0159     1.3796     0.0107 C.ar         1    LIG   0.0000
   7 Cl7         -1.5701     2.2470     0.0290 Cl           1    LIG   0.0000
   8 C8          -0.0145    -0.0114     0.0041 C.ar         1    LIG   0.0000
   9 C9           1.2054    -0.6795    -0.0110 C.ar         1    LIG   0.0000
  10 C10          1.2290    -2.1987    -0.0175 C.3          1    LIG   0.0000
  11 F11         -0.0178    -2.6616    -0.0068 F            1    LIG   0.0000
  12 F12          1.8517    -2.6278    -1.1116 F            1    LIG   0.0000
  13 C13          2.4111     0.0131    -0.0195 C.ar         1    LIG   0.0000
  14 C14          2.3819     1.4034    -0.0129 C.ar         1    LIG   0.0000
  15 Cl15         3.9065     2.3216    -0.0233 Cl           1    LIG   0.0000
  16 H            2.1513     3.4273    -1.7134 H            1    LIG   0.0000
  17 H           -0.8745    -0.5216     0.0102 H            1    LIG   0.0000
  18 H            1.7138    -2.5281     0.7927 H            1    LIG   0.0000
  19 H            3.2817    -0.4788    -0.0301 H            1    LIG   0.0000
@<TRIPOS>BOND
   1        1        2 1
   2        2        3 1
   3        2        4 1
   4        4        5 1
   5        5        6 ar
   6        6        7 1
   7        6        8 ar
   8        8        9 ar
   9        9       10 1
  10       10       11 1
  11       10       12 1
  12        9       13 ar
  13       13       14 ar
  14       14        5 ar
  15       14       15 1
  16        2       16 1
  17        8       17 1
  18       10       18 1
  19       13       19 1

@<TRIPOS>MOLECULE

  19   19
SMALL
USER_CHARGES
@<TRIPOS>ATOM
   1 F1           1.5592     5.3145     1.1871 F            1    LIG   0.0000
   2 C2           1.1537     4.0522     1.2927 C.3          1    LIG   0.0000
   3 F3          -0.0760     4.0224     1.7985 F            1    LIG   0.0000
   4 O4           1.1520     3.4466     0.0083 O.3          1    LIG   0.0000
   5 C5           1.1760     2.0963     0.0022 C.ar         1    LIG   0.0000
   6 C6          -0.0159     1.3796     0.0107 C.ar         1    LIG   0.0000
   7 Cl7         -1.5701     2.2470     0.0290 Cl           1    LIG   0.0000
   8 C8          -0.0145    -0.0114     0.0041 C.ar         1    LIG   0.0000
   9 C9           1.2054    -0.6795    -0.0110 C.ar         1    LIG   0.0000
  10 C10          1.2290    -2.1987    -0.0175 C.3          1    LIG   0.0000
  11 F11          0.6201    -2.6563     1.0728 F            1    LIG   0.0000
  12 F12          0.5980    -2.6473    -1.0990 F            1    LIG   0.0000
  13 C13          2.4111     0.0131    -0.0195 C.ar         1    LIG   0.0000
  14 C14          2.3819     1.4034    -0.0129 C.ar         1    LIG   0.0000
  15 Cl15         3.9065     2.3216    -0.0233 Cl           1    LIG   0.0000
  16 H            1.7746     3.5520     1.8963 H            1    LIG   0.0000
  17 H           -0.8745    -0.5216     0.0102 H            1    LIG   0.0000
  18 H            2.1768    -2.5173    -0.0285 H            1    LIG   0.0000
  19 H            3.2817    -0.4788    -0.0301 H            1    LIG   0.0000
@<TRIPOS>BOND
   1        1        2 1
   2        2        3 1
   3        2        4 1
   4        4        5 1
   5        5        6 ar
   6        6        7 1
   7        6        8 ar
   8        8        9 ar
   9        9       10 1
  10       10       11 1
  11       10       12 1
  12        9       13 ar
  13       13       14 ar
  14       14        5 ar
  15       14       15 1
  16        2       16 1
  17        8       17 1
  18       10       18 1
  19       13       19 1

@<TRIPOS>MOLECULE

  19   19
SMALL
USER_CHARGES
@<TRIPOS>ATOM
   1 F1           1.5592     5.3145     1.1871 F            1    LIG   0.0000
   2 C2           1.1537     4.0522     1.2927 C.3          1    LIG   0.0000
   3 F3          -0.0760     4.0224     1.7985 F            1    LIG   0.0000
   4 O4           1.1520     3.4466     0.0083 O.3          1    LIG   0.0000
   5 C5           1.1760     2.0963     0.0022 C.ar         1    LIG   0.0000
   6 C6          -0.0159     1.3796     0.0107 C.ar         1    LIG   0.0000
   7 Cl7         -1.5701     2.2470     0.0290 Cl           1    LIG   0.0000
   8 C8          -0.0145    -0.0114     0.0041 C.ar         1    LIG   0.0000
   9 C9           1.2054    -0.6795    -0.0110 C.ar         1    LIG   0.0000
  10 C10          1.2290    -2.1987    -0.0175 C.3          1    LIG   0.0000
  11 F11          2.3280    -2.6277     0.5965 F            1    LIG   0.0000
  12 F12          0.1565    -2.6616     0.6185 F            1    LIG   0.0000
  13 C13          2.4111     0.0131    -0.0195 C.ar         1    LIG   0.0000
  14 C14          2.3819     1.4034    -0.0129 C.ar         1    LIG   0.0000
  15 Cl15         3.9065     2.3216    -0.0233 Cl           1    LIG   0.0000
  16 H            1.7746     3.5520     1.8963 H            1    LIG   0.0000
  17 H           -0.8745    -0.5216     0.0102 H            1    LIG   0.0000
  18 H            1.2246    -2.5281    -0.9617 H            1    LIG   0.0000
  19 H            3.2817    -0.4788    -0.0301 H            1    LIG   0.0000
@<TRIPOS>BOND
   1        1        2 1
   2        2        3 1
   3        2        4 1
   4        4        5 1
   5        5        6 ar
   6        6        7 1
   7        6        8 ar
   8        8        9 ar
   9        9       10 1
  10       10       11 1
  11       10       12 1
  12        9       13 ar
  13       13       14 ar
  14       14        5 ar
  15       14       15 1
  16        2       16 1
  17        8       17 1
  18       10       18 1
  19       13       19 1

@<TRIPOS>MOLECULE

  19   19
SMALL
USER_CHARGES
@<TRIPOS>ATOM
   1 F1           2.3933     4.0663     1.7746 F            1    LIG   0.0000
   2 C2           1.1537     4.0522     1.2927 C.3          1    LIG   0.0000
   3 F3           0.7016     5.2992     1.1955 F            1    LIG   0.0000
   4 O4           1.1520     3.4466     0.0083 O.3          1    LIG   0.0000
   5 C5           1.1760     2.0963     0.0022 C.ar         1    LIG   0.0000
   6 C6          -0.0159     1.3796     0.0107 C.ar         1    LIG   0.0000
   7 Cl7         -1.5701     2.2470     0.0290 Cl           1    LIG   0.0000
   8 C8          -0.0145    -0.0114     0.0041 C.ar         1    LIG   0.0000
   9 C9           1.2054    -0.6795    -0.0110 C.ar         1    LIG   0.0000
  10 C10          1.2290    -2.1987    -0.0175 C.3          1    LIG   0.0000
  11 F11          0.6201    -2.6563     1.0728 F            1    LIG   0.0000
  12 F12          0.5980    -2.6473    -1.0990 F            1    LIG   0.0000
  13 C13          2.4111     0.0131    -0.0195 C.ar         1    LIG   0.0000
  14 C14          2.3819     1.4034    -0.0129 C.ar         1    LIG   0.0000
  15 Cl15         3.9065     2.3216    -0.0233 Cl           1    LIG   0.0000
  16 H            0.5628     3.5304     1.9080 H            1    LIG   0.0000
  17 H           -0.8745    -0.5216     0.0102 H            1    LIG   0.0000
  18 H            2.1768    -2.5173    -0.0285 H            1    LIG   0.0000
  19 H            3.2817    -0.4788    -0.0301 H            1    LIG   0.0000
@<TRIPOS>BOND
   1        1        2 1
   2        2        3 1
   3        2        4 1
   4        4        5 1
   5        5        6 ar
   6        6        7 1
   7        6        8 ar
   8        8        9 ar
   9        9       10 1
  10       10       11 1
  11       10       12 1
  12        9       13 ar
  13       13       14 ar
  14       14        5 ar
  15       14       15 1
  16        2       16 1
  17        8       17 1
  18       10       18 1
  19       13       19 1

@<TRIPOS>MOLECULE

  19   19
SMALL
USER_CHARGES
@<TRIPOS>ATOM
   1 F1           2.3933     4.0663     1.7746 F            1    LIG   0.0000
   2 C2           1.1537     4.0522     1.2927 C.3          1    LIG   0.0000
   3 F3           0.7016     5.2992     1.1955 F            1    LIG   0.0000
   4 O4           1.1520     3.4466     0.0083 O.3          1    LIG   0.0000
   5 C5           1.1760     2.0963     0.0022 C.ar         1    LIG   0.0000
   6 C6          -0.0159     1.3796     0.0107 C.ar         1    LIG   0.0000
   7 Cl7         -1.5701     2.2470     0.0290 Cl           1    LIG   0.0000
   8 C8          -0.0145    -0.0114     0.0041 C.ar         1    LIG   0.0000
   9 C9           1.2054    -0.6795    -0.0110 C.ar         1    LIG   0.0000
  10 C10          1.2290    -2.1987    -0.0175 C.3          1    LIG   0.0000
  11 F11          2.3280    -2.6277     0.5965 F            1    LIG   0.0000
  12 F12          0.1565    -2.6616     0.6185 F            1    LIG   0.0000
  13 C13          2.4111     0.0131    -0.0195 C.ar         1    LIG   0.0000
  14 C14          2.3819     1.4034    -0.0129 C.ar         1    LIG   0.0000
  15 Cl15         3.9065     2.3216    -0.0233 Cl           1    LIG   0.0000
  16 H            0.5628     3.5304     1.9080 H            1    LIG   0.0000
  17 H           -0.8745    -0.5216     0.0102 H            1    LIG   0.0000
  18 H            1.2246    -2.5281    -0.9617 H            1    LIG   0.0000
  19 H            3.2817    -0.4788    -0.0301 H            1    LIG   0.0000
@<TRIPOS>BOND
   1        1        2 1
   2        2        3 1
   3        2        4 1
   4        4        5 1
   5        5        6 ar
   6        6        7 1
   7        6        8 ar
   8        8        9 ar
   9        9       10 1
  10       10       11 1
  11       10       12 1
  12        9       13 ar
  13       13       14 ar
  14       14        5 ar
  15       14       15 1
  16        2       16 1
  17        8       17 1
  18       10       18 1
  19       13       19 1

@<TRIPOS>MOLECULE

  19   19
SMALL
USER_CHARGES
@<TRIPOS>ATOM
   1 F1           2.3845     4.4601     1.5889 F            1    LIG   0.0000
   2 C2           1.1537     4.0522     1.2927 C.3          1    LIG   0.0000
   3 F3           0.3290     5.0956     1.2920 F            1    LIG   0.0000
   4 O4           1.1520     3.4466     0.0083 O.3          1    LIG   0.0000
   5 C5           1.1760     2.0963     0.0022 C.ar         1    LIG   0.0000
   6 C6          -0.0159     1.3796     0.0107 C.ar         1    LIG   0.0000
   7 Cl7         -1.5701     2.2470     0.0290 Cl           1    LIG   0.0000
   8 C8          -0.0145    -0.0114     0.0041 C.ar         1    LIG   0.0000
   9 C9           1.2054    -0.6795    -0.0110 C.ar         1    LIG   0.0000
  10 C10          1.2290    -2.1987    -0.0175 C.3          1    LIG   0.0000
  11 F11          0.1438    -2.6564    -0.6354 F            1    LIG   0.0000
  12 F12          2.3153    -2.6225    -0.6573 F            1    LIG   0.0000
  13 C13          2.4111     0.0131    -0.0195 C.ar         1    LIG   0.0000
  14 C14          2.3819     1.4034    -0.0129 C.ar         1    LIG   0.0000
  15 Cl15         3.9065     2.3216    -0.0233 Cl           1    LIG   0.0000
  16 H            0.8496     3.3874     1.9751 H            1    LIG   0.0000
  17 H           -0.8745    -0.5216     0.0102 H            1    LIG   0.0000
  18 H            1.2438    -2.5359     0.9238 H            1    LIG   0.0000
  19 H            3.2817    -0.4788    -0.0301 H            1    LIG   0.0000
@<TRIPOS>BOND
   1        1        2 1
   2        2        3 1
   3        2        4 1
   4        4        5 1
   5        5        6 ar
   6        6        7 1
   7        6        8 ar
   8        8        9 ar
   9        9       10 1
  10       10       11 1
  11       10       12 1
  12        9       13 ar
  13       13       14 ar
  14       14        5 ar
  15       14       15 1
  16        2       16 1
  17        8       17 1
  18       10       18 1
  19       13       19 1

@<TRIPOS>MOLECULE

  19   19
SMALL
USER_CHARGES
@<TRIPOS>ATOM
   1 F1           2.0853     5.3255     0.8102 F            1    LIG   0.0000
   2 C2           1.7928     4.0643     1.1148 C.3          1    LIG   0.0000
   3 F3           0.9807     4.0394     2.1678 F            1    LIG   0.0000
   4 O4           1.1520     3.4466     0.0083 O.3          1    LIG   0.0000
   5 C5           1.1760     2.0963     0.0022 C.ar         1    LIG   0.0000
   6 C6          -0.0159     1.3796     0.0107 C.ar         1    LIG   0.0000
   7 Cl7         -1.5701     2.2470     0.0290 Cl           1    LIG   0.0000
   8 C8          -0.0145    -0.0114     0.0041 C.ar         1    LIG   0.0000
   9 C9           1.2054    -0.6795    -0.0110 C.ar         1    LIG   0.0000
  10 C10          1.2290    -2.1987    -0.0175 C.3          1    LIG   0.0000
  11 F11         -0.0178    -2.6616    -0.0068 F            1    LIG   0.0000
  12 F12          1.8517    -2.6278    -1.1116 F            1    LIG   0.0000
  13 C13          2.4111     0.0131    -0.0195 C.ar         1    LIG   0.0000
  14 C14          2.3819     1.4034    -0.0129 C.ar         1    LIG   0.0000
  15 Cl15         3.9065     2.3216    -0.0233 Cl           1    LIG   0.0000
  16 H            2.6345     3.5698     1.3312 H            1    LIG   0.0000
  17 H           -0.8745    -0.5216     0.0102 H            1    LIG   0.0000
  18 H            1.7138    -2.5281     0.7927 H            1    LIG   0.0000
  19 H            3.2817    -0.4788    -0.0301 H            1    LIG   0.0000
@<TRIPOS>BOND
   1        1        2 1
   2        2        3 1
   3        2        4 1
   4        4        5 1
   5        5        6 ar
   6        6        7 1
   7        6        8 ar
   8        8        9 ar
   9        9       10 1
  10       10       11 1
  11       10       12 1
  12        9       13 ar
  13       13       14 ar
  14       14        5 ar
  15       14       15 1
  16        2       16 1
  17        8       17 1
  18       10       18 1
  19       13       19 1

@<TRIPOS>MOLECULE

  19   19
SMALL
USER_CHARGES
@<TRIPOS>ATOM
   1 F1           1.2010     5.1100     1.5166 F            1    LIG   0.0000
   2 C2           0.5113     4.0415     1.1272 C.3          1    LIG   0.0000
   3 F3          -0.7214     4.4087     0.7888 F            1    LIG   0.0000
   4 O4           1.1520     3.4466     0.0083 O.3          1    LIG   0.0000
   5 C5           1.1760     2.0963     0.0022 C.ar         1    LIG   0.0000
   6 C6          -0.0159     1.3796     0.0107 C.ar         1    LIG   0.0000
   7 Cl7         -1.5701     2.2470     0.0290 Cl           1    LIG   0.0000
   8 C8          -0.0145    -0.0114     0.0041 C.ar         1    LIG   0.0000
   9 C9           1.2054    -0.6795    -0.0110 C.ar         1    LIG   0.0000
  10 C10          1.2290    -2.1987    -0.0175 C.3          1    LIG   0.0000
  11 F11         -0.0178    -2.6616    -0.0068 F            1    LIG   0.0000
  12 F12          1.8517    -2.6278    -1.1116 F            1    LIG   0.0000
  13 C13          2.4111     0.0131    -0.0195 C.ar         1    LIG   0.0000
  14 C14          2.3819     1.4034    -0.0129 C.ar         1    LIG   0.0000
  15 Cl15         3.9065     2.3216    -0.0233 Cl           1    LIG   0.0000
  16 H            0.4685     3.3811     1.8769 H            1    LIG   0.0000
  17 H           -0.8745    -0.5216     0.0102 H            1    LIG   0.0000
  18 H            1.7138    -2.5281     0.7927 H            1    LIG   0.0000
  19 H            3.2817    -0.4788    -0.0301 H            1    LIG   0.0000
@<TRIPOS>BOND
   1        1        2 1
   2        2        3 1
   3        2        4 1
   4        4        5 1
   5        5        6 ar
   6        6        7 1
   7        6        8 ar
   8        8        9 ar
   9        9       10 1
  10       10       11 1
  11       10       12 1
  12        9       13 ar
  13       13       14 ar
  14       14        5 ar
  15       14       15 1
  16        2       16 1
  17        8       17 1
  18       10       18 1
  19       13       19 1

