@<TRIPOS>MOLECULE
*****
 19 19 0 0 0
SMALL
USER_CHARGES

@<TRIPOS>ATOM
      1 F1          2.3845    4.4601    1.5889 F       1  LIG1        0.0000
      2 C2          1.1537    4.0522    1.2927 C.3     1  LIG1        0.0000
      3 F3          0.3290    5.0956    1.2920 F       1  LIG1        0.0000
      4 O4          1.1520    3.4466    0.0083 O.3     1  LIG1        0.0000
      5 C5          1.1760    2.0963    0.0022 C.ar    1  LIG1        0.0000
      6 C6         -0.0159    1.3796    0.0107 C.ar    1  LIG1        0.0000
      7 Cl7        -1.5701    2.2470    0.0290 Cl      1  LIG1        0.0000
      8 C8         -0.0145   -0.0114    0.0041 C.ar    1  LIG1        0.0000
      9 C9          1.2054   -0.6795   -0.0110 C.ar    1  LIG1        0.0000
     10 C10         1.2290   -2.1987   -0.0175 C.3     1  LIG1        0.0000
     11 F11         0.1438   -2.6564   -0.6354 F       1  LIG1        0.0000
     12 F12         2.3153   -2.6225   -0.6573 F       1  LIG1        0.0000
     13 C13         2.4111    0.0131   -0.0195 C.ar    1  LIG1        0.0000
     14 C14         2.3819    1.4034   -0.0129 C.ar    1  LIG1        0.0000
     15 Cl15        3.9065    2.3216   -0.0233 Cl      1  LIG1        0.0000
     16 H           0.8496    3.3874    1.9751 H       1  LIG1        0.0000
     17 H          -0.8745   -0.5216    0.0102 H       1  LIG1        0.0000
     18 H           1.2438   -2.5359    0.9238 H       1  LIG1        0.0000
     19 H           3.2817   -0.4788   -0.0301 H       1  LIG1        0.0000
@<TRIPOS>BOND
     1     1     2    1
     2     2     3    1
     3     2     4    1
     4     4     5    1
     5     5     6   ar
     6     6     7    1
     7     6     8   ar
     8     8     9   ar
     9     9    10    1
    10    10    11    1
    11    10    12    1
    12     9    13   ar
    13    13    14   ar
    14    14     5   ar
    15    14    15    1
    16     2    16    1
    17     8    17    1
    18    10    18    1
    19    13    19    1
