@<TRIPOS>MOLECULE

  47   51
SMALL
USER_CHARGES
@<TRIPOS>ATOM
   1 C1           5.1544     5.2890     3.4799 C.3          1    LIG   0.0000
   2 C2           4.4151     4.1388     2.8141 C.ar         1    LIG   0.0000
   3 C3           3.0238     4.1247     2.8074 C.ar         1    LIG   0.0000
   4 C4           2.3418     3.0759     2.1994 C.ar         1    LIG   0.0000
   5 C5           3.0697     2.0496     1.6060 C.ar         1    LIG   0.0000
   6 N6           2.3700     1.0000     1.0000 N.pl3        1    LIG   0.0000
   7 N7           1.0000     1.0000     1.0000 N.2          1    LIG   0.0000
   8 C8           0.4916    -0.1419     1.0000 C.2          1    LIG   0.0000
   9 C9           1.3443    -1.3156     1.0000 C.2          1    LIG   0.0000
  10 C10          0.9357    -2.4848     0.4124 C.2          1    LIG   0.0000
  11 S11         -0.6267    -2.5766    -0.3478 S.3          1    LIG   0.0000
  12 C12         -1.0104    -0.9029    -0.6301 C.2          1    LIG   0.0000
  13 N13         -0.1897     0.1192    -0.6816 N.2          1    LIG   0.0000
  14 C14         -0.7515     1.3532    -0.9181 C.ar         1    LIG   0.0000
  15 C15         -0.2099     2.6304    -1.0341 C.ar         1    LIG   0.0000
  16 C16         -1.0044     3.7463    -1.2837 C.ar         1    LIG   0.0000
  17 C17         -2.3853     3.6411    -1.4299 C.ar         1    LIG   0.0000
  18 C18         -2.9760     2.3913    -1.3228 C.ar         1    LIG   0.0000
  19 C19         -2.1208     1.3293    -1.0744 C.ar         1    LIG   0.0000
  20 S20         -2.5772    -0.2967    -0.8994 S.3          1    LIG   0.0000
  21 N21          1.7578    -3.5829     0.4238 N.2          1    LIG   0.0000
  22 C22          2.9501    -3.5473     0.9928 C.2          1    LIG   0.0000
  23 C23          3.7508    -4.7206     0.9689 C.2          1    LIG   0.0000
  24 C24          4.9915    -4.7129     1.5511 C.2          1    LIG   0.0000
  25 C25          5.4701    -3.5303     2.1756 C.2          1    LIG   0.0000
  26 C26          4.6668    -2.4201     2.1770 C.2          1    LIG   0.0000
  27 N27          3.4199    -2.4077     1.5989 N.pl3        1    LIG   0.0000
  28 C28          2.6272    -1.2851     1.6096 C.2          1    LIG   0.0000
  29 O29          2.9834    -0.2372     2.1303 O.2          1    LIG   0.0000
  30 N30          4.4109     2.0804     1.6238 N.ar         1    LIG   0.0000
  31 C31          5.0862     3.0838     2.2037 C.ar         1    LIG   0.0000
  32 H            4.4926     5.9379     3.8553 H            1    LIG   0.0000
  33 H            5.7284     4.9338     4.2177 H            1    LIG   0.0000
  34 H            5.7285     5.7517     2.8044 H            1    LIG   0.0000
  35 H            2.5142     4.8686     3.2396 H            1    LIG   0.0000
  36 H            1.3420     3.0598     2.1891 H            1    LIG   0.0000
  37 H            2.8700     0.2500     0.5670 H            1    LIG   0.0000
  38 H           -0.5029    -0.2465     1.0000 H            1    LIG   0.0000
  39 H            0.7780     2.7498    -0.9353 H            1    LIG   0.0000
  40 H           -0.5728     4.6452    -1.3600 H            1    LIG   0.0000
  41 H           -2.9412     4.4528    -1.6089 H            1    LIG   0.0000
  42 H           -3.9631     2.2634    -1.4194 H            1    LIG   0.0000
  43 H            3.4097    -5.5507     0.5279 H            1    LIG   0.0000
  44 H            5.5578    -5.5370     1.5363 H            1    LIG   0.0000
  45 H            6.3731    -3.5084     2.6046 H            1    LIG   0.0000
  46 H            5.0010    -1.5860     2.6159 H            1    LIG   0.0000
  47 H            6.0861     3.0736     2.1972 H            1    LIG   0.0000
@<TRIPOS>BOND
   1        1        2 1
   2        2        3 ar
   3        3        4 ar
   4        4        5 ar
   5        5        6 1
   6        6        7 1
   7        7        8 2
   8        8        9 1
   9        9       10 2
  10       10       11 1
  11       11       12 1
  12       12       13 2
  13       13       14 1
  14       14       15 ar
  15       15       16 ar
  16       16       17 ar
  17       17       18 ar
  18       18       19 ar
  19       19       14 ar
  20       19       20 1
  21       20       12 1
  22       10       21 1
  23       21       22 2
  24       22       23 1
  25       23       24 2
  26       24       25 1
  27       25       26 2
  28       26       27 1
  29       27       22 1
  30       27       28 1
  31       28        9 1
  32       28       29 2
  33        5       30 ar
  34       30       31 ar
  35       31        2 ar
  36        1       32 1
  37        1       33 1
  38        1       34 1
  39        3       35 1
  40        4       36 1
  41        6       37 1
  42        8       38 1
  43       15       39 1
  44       16       40 1
  45       17       41 1
  46       18       42 1
  47       23       43 1
  48       24       44 1
  49       25       45 1
  50       26       46 1
  51       31       47 1

@<TRIPOS>MOLECULE

  47   51
SMALL
USER_CHARGES
@<TRIPOS>ATOM
   1 C1           5.1544     5.2890     3.4799 C.3          1    LIG   0.0000
   2 C2           4.4151     4.1388     2.8141 C.ar         1    LIG   0.0000
   3 C3           3.0238     4.1247     2.8074 C.ar         1    LIG   0.0000
   4 C4           2.3418     3.0759     2.1994 C.ar         1    LIG   0.0000
   5 C5           3.0697     2.0496     1.6060 C.ar         1    LIG   0.0000
   6 N6           2.3700     1.0000     1.0000 N.pl3        1    LIG   0.0000
   7 N7           1.0000     1.0000     1.0000 N.2          1    LIG   0.0000
   8 C8           0.4916    -0.1419     1.0000 C.2          1    LIG   0.0000
   9 C9           1.3443    -1.3156     1.0000 C.2          1    LIG   0.0000
  10 C10          0.9357    -2.4848     0.4124 C.2          1    LIG   0.0000
  11 S11         -0.6267    -2.5766    -0.3478 S.3          1    LIG   0.0000
  12 C12         -0.6721    -4.2175    -0.9252 C.2          1    LIG   0.0000
  13 N13          0.2489    -5.1441    -0.8067 N.2          1    LIG   0.0000
  14 C14         -0.0337    -6.3724    -1.3597 C.ar         1    LIG   0.0000
  15 C15          0.6838    -7.5633    -1.4306 C.ar         1    LIG   0.0000
  16 C16          0.1693    -8.6958    -2.0564 C.ar         1    LIG   0.0000
  17 C17         -1.0926    -8.6943    -2.6453 C.ar         1    LIG   0.0000
  18 C18         -1.8491    -7.5331    -2.6035 C.ar         1    LIG   0.0000
  19 C19         -1.2706    -6.4484    -1.9633 C.ar         1    LIG   0.0000
  20 S20         -1.9741    -4.9154    -1.7694 S.3          1    LIG   0.0000
  21 N21          1.7578    -3.5829     0.4238 N.2          1    LIG   0.0000
  22 C22          2.9501    -3.5473     0.9928 C.2          1    LIG   0.0000
  23 C23          3.7508    -4.7206     0.9689 C.2          1    LIG   0.0000
  24 C24          4.9915    -4.7129     1.5511 C.2          1    LIG   0.0000
  25 C25          5.4701    -3.5303     2.1756 C.2          1    LIG   0.0000
  26 C26          4.6668    -2.4201     2.1770 C.2          1    LIG   0.0000
  27 N27          3.4199    -2.4077     1.5989 N.pl3        1    LIG   0.0000
  28 C28          2.6272    -1.2851     1.6096 C.2          1    LIG   0.0000
  29 O29          2.9834    -0.2372     2.1303 O.2          1    LIG   0.0000
  30 N30          4.4109     2.0804     1.6238 N.ar         1    LIG   0.0000
  31 C31          5.0862     3.0838     2.2037 C.ar         1    LIG   0.0000
  32 H            4.4926     5.9379     3.8553 H            1    LIG   0.0000
  33 H            5.7284     4.9338     4.2177 H            1    LIG   0.0000
  34 H            5.7285     5.7517     2.8044 H            1    LIG   0.0000
  35 H            2.5142     4.8686     3.2396 H            1    LIG   0.0000
  36 H            1.3420     3.0598     2.1891 H            1    LIG   0.0000
  37 H            2.8700     0.2500     0.5670 H            1    LIG   0.0000
  38 H           -0.5029    -0.2465     1.0000 H            1    LIG   0.0000
  39 H            1.5947    -7.6066    -1.0204 H            1    LIG   0.0000
  40 H            0.7194    -9.5305    -2.0835 H            1    LIG   0.0000
  41 H           -1.4470    -9.5165    -3.0907 H            1    LIG   0.0000
  42 H           -2.7604    -7.4811    -3.0120 H            1    LIG   0.0000
  43 H            3.4097    -5.5507     0.5279 H            1    LIG   0.0000
  44 H            5.5578    -5.5370     1.5363 H            1    LIG   0.0000
  45 H            6.3731    -3.5084     2.6046 H            1    LIG   0.0000
  46 H            5.0010    -1.5860     2.6159 H            1    LIG   0.0000
  47 H            6.0861     3.0736     2.1972 H            1    LIG   0.0000
@<TRIPOS>BOND
   1        1        2 1
   2        2        3 ar
   3        3        4 ar
   4        4        5 ar
   5        5        6 1
   6        6        7 1
   7        7        8 2
   8        8        9 1
   9        9       10 2
  10       10       11 1
  11       11       12 1
  12       12       13 2
  13       13       14 1
  14       14       15 ar
  15       15       16 ar
  16       16       17 ar
  17       17       18 ar
  18       18       19 ar
  19       19       14 ar
  20       19       20 1
  21       20       12 1
  22       10       21 1
  23       21       22 2
  24       22       23 1
  25       23       24 2
  26       24       25 1
  27       25       26 2
  28       26       27 1
  29       27       22 1
  30       27       28 1
  31       28        9 1
  32       28       29 2
  33        5       30 ar
  34       30       31 ar
  35       31        2 ar
  36        1       32 1
  37        1       33 1
  38        1       34 1
  39        3       35 1
  40        4       36 1
  41        6       37 1
  42        8       38 1
  43       15       39 1
  44       16       40 1
  45       17       41 1
  46       18       42 1
  47       23       43 1
  48       24       44 1
  49       25       45 1
  50       26       46 1
  51       31       47 1

@<TRIPOS>MOLECULE

  47   51
SMALL
USER_CHARGES
@<TRIPOS>ATOM
   1 C1           5.1544     5.2890     3.4799 C.3          1    LIG   0.0000
   2 C2           4.4151     4.1388     2.8141 C.ar         1    LIG   0.0000
   3 C3           3.0238     4.1247     2.8074 C.ar         1    LIG   0.0000
   4 C4           2.3418     3.0759     2.1994 C.ar         1    LIG   0.0000
   5 C5           3.0697     2.0496     1.6060 C.ar         1    LIG   0.0000
   6 N6           2.3700     1.0000     1.0000 N.pl3        1    LIG   0.0000
   7 N7           1.0000     1.0000     1.0000 N.2          1    LIG   0.0000
   8 C8           0.4916    -0.1419     1.0000 C.2          1    LIG   0.0000
   9 C9           1.3443    -1.3156     1.0000 C.2          1    LIG   0.0000
  10 C10          0.9357    -2.4848     0.4124 C.2          1    LIG   0.0000
  11 S11         -0.6267    -2.5766    -0.3478 S.3          1    LIG   0.0000
  12 C12         -1.6540    -3.0952     0.9574 C.2          1    LIG   0.0000
  13 N13         -1.3200    -3.3474     2.2006 N.2          1    LIG   0.0000
  14 C14         -2.3305    -3.7500     3.0439 C.ar         1    LIG   0.0000
  15 C15         -2.3528    -4.0982     4.3916 C.ar         1    LIG   0.0000
  16 C16         -3.5285    -4.4772     5.0340 C.ar         1    LIG   0.0000
  17 C17         -4.7453    -4.5280     4.3586 C.ar         1    LIG   0.0000
  18 C18         -4.7787    -4.1916     3.0139 C.ar         1    LIG   0.0000
  19 C19         -3.5696    -3.8243     2.4447 C.ar         1    LIG   0.0000
  20 S20         -3.3285    -3.3674     0.8273 S.3          1    LIG   0.0000
  21 N21          1.7578    -3.5829     0.4238 N.2          1    LIG   0.0000
  22 C22          2.9501    -3.5473     0.9928 C.2          1    LIG   0.0000
  23 C23          3.7508    -4.7206     0.9689 C.2          1    LIG   0.0000
  24 C24          4.9915    -4.7129     1.5511 C.2          1    LIG   0.0000
  25 C25          5.4701    -3.5303     2.1756 C.2          1    LIG   0.0000
  26 C26          4.6668    -2.4201     2.1770 C.2          1    LIG   0.0000
  27 N27          3.4199    -2.4077     1.5989 N.pl3        1    LIG   0.0000
  28 C28          2.6272    -1.2851     1.6096 C.2          1    LIG   0.0000
  29 O29          2.9834    -0.2372     2.1303 O.2          1    LIG   0.0000
  30 N30          4.4109     2.0804     1.6238 N.ar         1    LIG   0.0000
  31 C31          5.0862     3.0838     2.2037 C.ar         1    LIG   0.0000
  32 H            4.4926     5.9379     3.8553 H            1    LIG   0.0000
  33 H            5.7284     4.9338     4.2177 H            1    LIG   0.0000
  34 H            5.7285     5.7517     2.8044 H            1    LIG   0.0000
  35 H            2.5142     4.8686     3.2396 H            1    LIG   0.0000
  36 H            1.3420     3.0598     2.1891 H            1    LIG   0.0000
  37 H            2.8700     0.2500     0.5670 H            1    LIG   0.0000
  38 H           -0.5029    -0.2465     1.0000 H            1    LIG   0.0000
  39 H           -1.5000    -4.0754     4.9132 H            1    LIG   0.0000
  40 H           -3.4985    -4.7188     6.0039 H            1    LIG   0.0000
  41 H           -5.5806    -4.8024     4.8352 H            1    LIG   0.0000
  42 H           -5.6271    -4.2126     2.4849 H            1    LIG   0.0000
  43 H            3.4097    -5.5507     0.5279 H            1    LIG   0.0000
  44 H            5.5578    -5.5370     1.5363 H            1    LIG   0.0000
  45 H            6.3731    -3.5084     2.6046 H            1    LIG   0.0000
  46 H            5.0010    -1.5860     2.6159 H            1    LIG   0.0000
  47 H            6.0861     3.0736     2.1972 H            1    LIG   0.0000
@<TRIPOS>BOND
   1        1        2 1
   2        2        3 ar
   3        3        4 ar
   4        4        5 ar
   5        5        6 1
   6        6        7 1
   7        7        8 2
   8        8        9 1
   9        9       10 2
  10       10       11 1
  11       11       12 1
  12       12       13 2
  13       13       14 1
  14       14       15 ar
  15       15       16 ar
  16       16       17 ar
  17       17       18 ar
  18       18       19 ar
  19       19       14 ar
  20       19       20 1
  21       20       12 1
  22       10       21 1
  23       21       22 2
  24       22       23 1
  25       23       24 2
  26       24       25 1
  27       25       26 2
  28       26       27 1
  29       27       22 1
  30       27       28 1
  31       28        9 1
  32       28       29 2
  33        5       30 ar
  34       30       31 ar
  35       31        2 ar
  36        1       32 1
  37        1       33 1
  38        1       34 1
  39        3       35 1
  40        4       36 1
  41        6       37 1
  42        8       38 1
  43       15       39 1
  44       16       40 1
  45       17       41 1
  46       18       42 1
  47       23       43 1
  48       24       44 1
  49       25       45 1
  50       26       46 1
  51       31       47 1

@<TRIPOS>MOLECULE

  47   51
SMALL
USER_CHARGES
@<TRIPOS>ATOM
   1 C1           5.1544     5.2890     3.4799 C.3          1    LIG   0.0000
   2 C2           4.4151     4.1388     2.8141 C.ar         1    LIG   0.0000
   3 C3           3.0238     4.1247     2.8074 C.ar         1    LIG   0.0000
   4 C4           2.3418     3.0759     2.1994 C.ar         1    LIG   0.0000
   5 C5           3.0697     2.0496     1.6060 C.ar         1    LIG   0.0000
   6 N6           2.3700     1.0000     1.0000 N.pl3        1    LIG   0.0000
   7 N7           1.0000     1.0000     1.0000 N.2          1    LIG   0.0000
   8 C8           0.4916    -0.1419     1.0000 C.2          1    LIG   0.0000
   9 C9           1.3443    -1.3156     1.0000 C.2          1    LIG   0.0000
  10 C10          0.9357    -2.4848     0.4124 C.2          1    LIG   0.0000
  11 S11         -0.6267    -2.5766    -0.3478 S.3          1    LIG   0.0000
  12 C12         -0.2810    -2.0980    -1.9848 C.2          1    LIG   0.0000
  13 N13          0.8753    -1.7582    -2.5029 N.2          1    LIG   0.0000
  14 C14          0.8798    -1.4147    -3.8356 C.ar         1    LIG   0.0000
  15 C15          1.8906    -1.0085    -4.7023 C.ar         1    LIG   0.0000
  16 C16          1.6385    -0.7133    -6.0395 C.ar         1    LIG   0.0000
  17 C17          0.3583    -0.8092    -6.5791 C.ar         1    LIG   0.0000
  18 C18         -0.6854    -1.2089    -5.7585 C.ar         1    LIG   0.0000
  19 C19         -0.3565    -1.4858    -4.4409 C.ar         1    LIG   0.0000
  20 S20         -1.4347    -1.9919    -3.2309 S.3          1    LIG   0.0000
  21 N21          1.7578    -3.5829     0.4238 N.2          1    LIG   0.0000
  22 C22          2.9501    -3.5473     0.9928 C.2          1    LIG   0.0000
  23 C23          3.7508    -4.7206     0.9689 C.2          1    LIG   0.0000
  24 C24          4.9915    -4.7129     1.5511 C.2          1    LIG   0.0000
  25 C25          5.4701    -3.5303     2.1756 C.2          1    LIG   0.0000
  26 C26          4.6668    -2.4201     2.1770 C.2          1    LIG   0.0000
  27 N27          3.4199    -2.4077     1.5989 N.pl3        1    LIG   0.0000
  28 C28          2.6272    -1.2851     1.6096 C.2          1    LIG   0.0000
  29 O29          2.9834    -0.2372     2.1303 O.2          1    LIG   0.0000
  30 N30          4.4109     2.0804     1.6238 N.ar         1    LIG   0.0000
  31 C31          5.0862     3.0838     2.2037 C.ar         1    LIG   0.0000
  32 H            4.4926     5.9379     3.8553 H            1    LIG   0.0000
  33 H            5.7284     4.9338     4.2177 H            1    LIG   0.0000
  34 H            5.7285     5.7517     2.8044 H            1    LIG   0.0000
  35 H            2.5142     4.8686     3.2396 H            1    LIG   0.0000
  36 H            1.3420     3.0598     2.1891 H            1    LIG   0.0000
  37 H            2.8700     0.2500     0.5670 H            1    LIG   0.0000
  38 H           -0.5029    -0.2465     1.0000 H            1    LIG   0.0000
  39 H            2.8246    -0.9263    -4.3545 H            1    LIG   0.0000
  40 H            2.3951    -0.4255    -6.6266 H            1    LIG   0.0000
  41 H            0.1946    -0.5935    -7.5417 H            1    LIG   0.0000
  42 H           -1.6223    -1.2927    -6.0981 H            1    LIG   0.0000
  43 H            3.4097    -5.5507     0.5279 H            1    LIG   0.0000
  44 H            5.5578    -5.5370     1.5363 H            1    LIG   0.0000
  45 H            6.3731    -3.5084     2.6046 H            1    LIG   0.0000
  46 H            5.0010    -1.5860     2.6159 H            1    LIG   0.0000
  47 H            6.0861     3.0736     2.1972 H            1    LIG   0.0000
@<TRIPOS>BOND
   1        1        2 1
   2        2        3 ar
   3        3        4 ar
   4        4        5 ar
   5        5        6 1
   6        6        7 1
   7        7        8 2
   8        8        9 1
   9        9       10 2
  10       10       11 1
  11       11       12 1
  12       12       13 2
  13       13       14 1
  14       14       15 ar
  15       15       16 ar
  16       16       17 ar
  17       17       18 ar
  18       18       19 ar
  19       19       14 ar
  20       19       20 1
  21       20       12 1
  22       10       21 1
  23       21       22 2
  24       22       23 1
  25       23       24 2
  26       24       25 1
  27       25       26 2
  28       26       27 1
  29       27       22 1
  30       27       28 1
  31       28        9 1
  32       28       29 2
  33        5       30 ar
  34       30       31 ar
  35       31        2 ar
  36        1       32 1
  37        1       33 1
  38        1       34 1
  39        3       35 1
  40        4       36 1
  41        6       37 1
  42        8       38 1
  43       15       39 1
  44       16       40 1
  45       17       41 1
  46       18       42 1
  47       23       43 1
  48       24       44 1
  49       25       45 1
  50       26       46 1
  51       31       47 1

@<TRIPOS>MOLECULE

  47   51
SMALL
USER_CHARGES
@<TRIPOS>ATOM
   1 C1           5.2141     5.2279     3.5169 C.3          1    LIG   0.0000
   2 C2           4.4526     4.1001     2.8378 C.ar         1    LIG   0.0000
   3 C3           4.0990     2.9692     3.5672 C.ar         1    LIG   0.0000
   4 C4           3.4018     1.9347     2.9520 C.ar         1    LIG   0.0000
   5 C5           3.0697     2.0496     1.6060 C.ar         1    LIG   0.0000
   6 N6           2.3700     1.0000     1.0000 N.pl3        1    LIG   0.0000
   7 N7           1.0000     1.0000     1.0000 N.2          1    LIG   0.0000
   8 C8           0.4916    -0.1419     1.0000 C.2          1    LIG   0.0000
   9 C9           1.3443    -1.3156     1.0000 C.2          1    LIG   0.0000
  10 C10          0.9357    -2.4848     0.4124 C.2          1    LIG   0.0000
  11 S11         -0.6267    -2.5766    -0.3478 S.3          1    LIG   0.0000
  12 C12         -1.6834    -1.9366     0.8777 C.2          1    LIG   0.0000
  13 N13         -2.9849    -1.7814     0.8252 N.2          1    LIG   0.0000
  14 C14         -3.5899    -1.2443     1.9387 C.ar         1    LIG   0.0000
  15 C15         -4.9146    -0.9391     2.2384 C.ar         1    LIG   0.0000
  16 C16         -5.2841    -0.3919     3.4643 C.ar         1    LIG   0.0000
  17 C17         -4.3442    -0.1208     4.4555 C.ar         1    LIG   0.0000
  18 C18         -3.0099    -0.4055     4.2080 C.ar         1    LIG   0.0000
  19 C19         -2.7201    -0.9487     2.9663 C.ar         1    LIG   0.0000
  20 S20         -1.1784    -1.3889     2.4074 S.3          1    LIG   0.0000
  21 N21          1.7578    -3.5829     0.4238 N.2          1    LIG   0.0000
  22 C22          2.9501    -3.5473     0.9928 C.2          1    LIG   0.0000
  23 C23          3.7508    -4.7206     0.9689 C.2          1    LIG   0.0000
  24 C24          4.9915    -4.7129     1.5511 C.2          1    LIG   0.0000
  25 C25          5.4701    -3.5303     2.1756 C.2          1    LIG   0.0000
  26 C26          4.6668    -2.4201     2.1770 C.2          1    LIG   0.0000
  27 N27          3.4199    -2.4077     1.5989 N.pl3        1    LIG   0.0000
  28 C28          2.6272    -1.2851     1.6096 C.2          1    LIG   0.0000
  29 O29          2.9834    -0.2372     2.1303 O.2          1    LIG   0.0000
  30 N30          3.4204     3.1475     0.9193 N.ar         1    LIG   0.0000
  31 C31          4.0916     4.1560     1.4953 C.ar         1    LIG   0.0000
  32 H            5.3739     4.9923     4.4755 H            1    LIG   0.0000
  33 H            6.0913     5.3625     3.0561 H            1    LIG   0.0000
  34 H            4.6779     6.0704     3.4656 H            1    LIG   0.0000
  35 H            4.3462     2.9001     4.5337 H            1    LIG   0.0000
  36 H            3.1428     1.1196     3.4702 H            1    LIG   0.0000
  37 H            2.8700     0.2500     0.5670 H            1    LIG   0.0000
  38 H           -0.5029    -0.2465     1.0000 H            1    LIG   0.0000
  39 H           -5.6211    -1.1179     1.5537 H            1    LIG   0.0000
  40 H           -6.2479    -0.1887     3.6373 H            1    LIG   0.0000
  41 H           -4.6266     0.2723     5.3305 H            1    LIG   0.0000
  42 H           -2.2972    -0.2288     4.8869 H            1    LIG   0.0000
  43 H            3.4097    -5.5507     0.5279 H            1    LIG   0.0000
  44 H            5.5578    -5.5370     1.5363 H            1    LIG   0.0000
  45 H            6.3731    -3.5084     2.6046 H            1    LIG   0.0000
  46 H            5.0010    -1.5860     2.6159 H            1    LIG   0.0000
  47 H            4.3359     4.9593     0.9521 H            1    LIG   0.0000
@<TRIPOS>BOND
   1        1        2 1
   2        2        3 ar
   3        3        4 ar
   4        4        5 ar
   5        5        6 1
   6        6        7 1
   7        7        8 2
   8        8        9 1
   9        9       10 2
  10       10       11 1
  11       11       12 1
  12       12       13 2
  13       13       14 1
  14       14       15 ar
  15       15       16 ar
  16       16       17 ar
  17       17       18 ar
  18       18       19 ar
  19       19       14 ar
  20       19       20 1
  21       20       12 1
  22       10       21 1
  23       21       22 2
  24       22       23 1
  25       23       24 2
  26       24       25 1
  27       25       26 2
  28       26       27 1
  29       27       22 1
  30       27       28 1
  31       28        9 1
  32       28       29 2
  33        5       30 ar
  34       30       31 ar
  35       31        2 ar
  36        1       32 1
  37        1       33 1
  38        1       34 1
  39        3       35 1
  40        4       36 1
  41        6       37 1
  42        8       38 1
  43       15       39 1
  44       16       40 1
  45       17       41 1
  46       18       42 1
  47       23       43 1
  48       24       44 1
  49       25       45 1
  50       26       46 1
  51       31       47 1

@<TRIPOS>MOLECULE

  47   51
SMALL
USER_CHARGES
@<TRIPOS>ATOM
   1 C1           5.2087     5.2964     3.4046 C.3          1    LIG   0.0000
   2 C2           4.4496     4.1432     2.7667 C.ar         1    LIG   0.0000
   3 C3           4.0940     4.2103     1.4233 C.ar         1    LIG   0.0000
   4 C4           3.4004     3.1586     0.8339 C.ar         1    LIG   0.0000
   5 C5           3.0697     2.0496     1.6060 C.ar         1    LIG   0.0000
   6 N6           2.3700     1.0000     1.0000 N.pl3        1    LIG   0.0000
   7 N7           1.0000     1.0000     1.0000 N.2          1    LIG   0.0000
   8 C8           0.4916    -0.1419     1.0000 C.2          1    LIG   0.0000
   9 C9           1.3443    -1.3156     1.0000 C.2          1    LIG   0.0000
  10 C10          0.9357    -2.4848     0.4124 C.2          1    LIG   0.0000
  11 S11         -0.6267    -2.5766    -0.3478 S.3          1    LIG   0.0000
  12 C12         -0.2517    -3.2565    -1.9051 C.2          1    LIG   0.0000
  13 N13         -0.2100    -4.5220    -2.2482 N.2          1    LIG   0.0000
  14 C14          0.1192    -4.7987    -3.5556 C.ar         1    LIG   0.0000
  15 C15          0.2607    -5.9902    -4.2615 C.ar         1    LIG   0.0000
  16 C16          0.6066    -6.0095    -5.6101 C.ar         1    LIG   0.0000
  17 C17          0.8299    -4.8343    -6.3231 C.ar         1    LIG   0.0000
  18 C18          0.7027    -3.6194    -5.6671 C.ar         1    LIG   0.0000
  19 C19          0.3555    -3.6809    -4.3267 C.ar         1    LIG   0.0000
  20 S20          0.1345    -2.3519    -3.2935 S.3          1    LIG   0.0000
  21 N21          1.7578    -3.5829     0.4238 N.2          1    LIG   0.0000
  22 C22          2.9501    -3.5473     0.9928 C.2          1    LIG   0.0000
  23 C23          3.7508    -4.7206     0.9689 C.2          1    LIG   0.0000
  24 C24          4.9915    -4.7129     1.5511 C.2          1    LIG   0.0000
  25 C25          5.4701    -3.5303     2.1756 C.2          1    LIG   0.0000
  26 C26          4.6668    -2.4201     2.1770 C.2          1    LIG   0.0000
  27 N27          3.4199    -2.4077     1.5989 N.pl3        1    LIG   0.0000
  28 C28          2.6272    -1.2851     1.6096 C.2          1    LIG   0.0000
  29 O29          2.9834    -0.2372     2.1303 O.2          1    LIG   0.0000
  30 N30          3.4204     2.0038     2.9001 N.ar         1    LIG   0.0000
  31 C31          4.0907     3.0074     3.4858 C.ar         1    LIG   0.0000
  32 H            5.3672     6.0094     2.7216 H            1    LIG   0.0000
  33 H            4.6715     5.6718     4.1599 H            1    LIG   0.0000
  34 H            6.0865     4.9662     3.7516 H            1    LIG   0.0000
  35 H            4.3371     5.0148     0.8814 H            1    LIG   0.0000
  36 H            3.1430     3.1990    -0.1316 H            1    LIG   0.0000
  37 H            2.8700     0.2500     0.5670 H            1    LIG   0.0000
  38 H           -0.5029    -0.2465     1.0000 H            1    LIG   0.0000
  39 H            0.1096    -6.8571    -3.7864 H            1    LIG   0.0000
  40 H            0.6969    -6.8887    -6.0780 H            1    LIG   0.0000
  41 H            1.0776    -4.8661    -7.2914 H            1    LIG   0.0000
  42 H            0.8530    -2.7482    -6.1346 H            1    LIG   0.0000
  43 H            3.4097    -5.5507     0.5279 H            1    LIG   0.0000
  44 H            5.5578    -5.5370     1.5363 H            1    LIG   0.0000
  45 H            6.3731    -3.5084     2.6046 H            1    LIG   0.0000
  46 H            5.0010    -1.5860     2.6159 H            1    LIG   0.0000
  47 H            4.3358     2.9382     4.4528 H            1    LIG   0.0000
@<TRIPOS>BOND
   1        1        2 1
   2        2        3 ar
   3        3        4 ar
   4        4        5 ar
   5        5        6 1
   6        6        7 1
   7        7        8 2
   8        8        9 1
   9        9       10 2
  10       10       11 1
  11       11       12 1
  12       12       13 2
  13       13       14 1
  14       14       15 ar
  15       15       16 ar
  16       16       17 ar
  17       17       18 ar
  18       18       19 ar
  19       19       14 ar
  20       19       20 1
  21       20       12 1
  22       10       21 1
  23       21       22 2
  24       22       23 1
  25       23       24 2
  26       24       25 1
  27       25       26 2
  28       26       27 1
  29       27       22 1
  30       27       28 1
  31       28        9 1
  32       28       29 2
  33        5       30 ar
  34       30       31 ar
  35       31        2 ar
  36        1       32 1
  37        1       33 1
  38        1       34 1
  39        3       35 1
  40        4       36 1
  41        6       37 1
  42        8       38 1
  43       15       39 1
  44       16       40 1
  45       17       41 1
  46       18       42 1
  47       23       43 1
  48       24       44 1
  49       25       45 1
  50       26       46 1
  51       31       47 1

@<TRIPOS>MOLECULE

  47   51
SMALL
USER_CHARGES
@<TRIPOS>ATOM
   1 C1           5.2659     5.2251     3.4619 C.3          1    LIG   0.0000
   2 C2           4.4854     4.0982     2.8033 C.ar         1    LIG   0.0000
   3 C3           5.1053     2.8749     2.5685 C.ar         1    LIG   0.0000
   4 C4           4.3967     1.8400     1.9672 C.ar         1    LIG   0.0000
   5 C5           3.0697     2.0496     1.6060 C.ar         1    LIG   0.0000
   6 N6           2.3700     1.0000     1.0000 N.pl3        1    LIG   0.0000
   7 N7           1.0000     1.0000     1.0000 N.2          1    LIG   0.0000
   8 C8           0.4916    -0.1419     1.0000 C.2          1    LIG   0.0000
   9 C9           1.3443    -1.3156     1.0000 C.2          1    LIG   0.0000
  10 C10          0.9357    -2.4848     0.4124 C.2          1    LIG   0.0000
  11 S11         -0.6267    -2.5766    -0.3478 S.3          1    LIG   0.0000
  12 C12         -0.6315    -1.1727    -1.3761 C.2          1    LIG   0.0000
  13 N13         -0.2305    -1.0790    -2.6216 N.2          1    LIG   0.0000
  14 C14         -0.3376     0.1582    -3.2152 C.ar         1    LIG   0.0000
  15 C15         -0.0182     0.6257    -4.4870 C.ar         1    LIG   0.0000
  16 C16         -0.2274     1.9516    -4.8572 C.ar         1    LIG   0.0000
  17 C17         -0.7678     2.8801    -3.9711 C.ar         1    LIG   0.0000
  18 C18         -1.1031     2.4666    -2.6908 C.ar         1    LIG   0.0000
  19 C19         -0.8664     1.1330    -2.3967 C.ar         1    LIG   0.0000
  20 S20         -1.1832     0.3690    -0.9139 S.3          1    LIG   0.0000
  21 N21          1.7578    -3.5829     0.4238 N.2          1    LIG   0.0000
  22 C22          2.9501    -3.5473     0.9928 C.2          1    LIG   0.0000
  23 C23          3.7508    -4.7206     0.9689 C.2          1    LIG   0.0000
  24 C24          4.9915    -4.7129     1.5511 C.2          1    LIG   0.0000
  25 C25          5.4701    -3.5303     2.1756 C.2          1    LIG   0.0000
  26 C26          4.6668    -2.4201     2.1770 C.2          1    LIG   0.0000
  27 N27          3.4199    -2.4077     1.5989 N.pl3        1    LIG   0.0000
  28 C28          2.6272    -1.2851     1.6096 C.2          1    LIG   0.0000
  29 O29          2.9834    -0.2372     2.1303 O.2          1    LIG   0.0000
  30 N30          2.4897     3.2366     1.8396 N.ar         1    LIG   0.0000
  31 C31          3.1562     4.2459     2.4196 C.ar         1    LIG   0.0000
  32 H            6.1967     4.9162     3.6572 H            1    LIG   0.0000
  33 H            5.2982     6.0124     2.8462 H            1    LIG   0.0000
  34 H            4.8159     5.4877     4.3155 H            1    LIG   0.0000
  35 H            6.0605     2.7397     2.8321 H            1    LIG   0.0000
  36 H            4.8351     0.9575     1.7968 H            1    LIG   0.0000
  37 H            2.8700     0.2500     0.5670 H            1    LIG   0.0000
  38 H           -0.5029    -0.2465     1.0000 H            1    LIG   0.0000
  39 H            0.3726    -0.0088    -5.1537 H            1    LIG   0.0000
  40 H            0.0163     2.2442    -5.7819 H            1    LIG   0.0000
  41 H           -0.9115     3.8286    -4.2532 H            1    LIG   0.0000
  42 H           -1.4934     3.0949    -2.0178 H            1    LIG   0.0000
  43 H            3.4097    -5.5507     0.5279 H            1    LIG   0.0000
  44 H            5.5578    -5.5370     1.5363 H            1    LIG   0.0000
  45 H            6.3731    -3.5084     2.6046 H            1    LIG   0.0000
  46 H            5.0010    -1.5860     2.6159 H            1    LIG   0.0000
  47 H            2.6911     5.1168     2.5786 H            1    LIG   0.0000
@<TRIPOS>BOND
   1        1        2 1
   2        2        3 ar
   3        3        4 ar
   4        4        5 ar
   5        5        6 1
   6        6        7 1
   7        7        8 2
   8        8        9 1
   9        9       10 2
  10       10       11 1
  11       11       12 1
  12       12       13 2
  13       13       14 1
  14       14       15 ar
  15       15       16 ar
  16       16       17 ar
  17       17       18 ar
  18       18       19 ar
  19       19       14 ar
  20       19       20 1
  21       20       12 1
  22       10       21 1
  23       21       22 2
  24       22       23 1
  25       23       24 2
  26       24       25 1
  27       25       26 2
  28       26       27 1
  29       27       22 1
  30       27       28 1
  31       28        9 1
  32       28       29 2
  33        5       30 ar
  34       30       31 ar
  35       31        2 ar
  36        1       32 1
  37        1       33 1
  38        1       34 1
  39        3       35 1
  40        4       36 1
  41        6       37 1
  42        8       38 1
  43       15       39 1
  44       16       40 1
  45       17       41 1
  46       18       42 1
  47       23       43 1
  48       24       44 1
  49       25       45 1
  50       26       46 1
  51       31       47 1

@<TRIPOS>MOLECULE

  47   51
SMALL
USER_CHARGES
@<TRIPOS>ATOM
   1 C1           5.1544     5.2922    -1.4745 C.3          1    LIG   0.0000
   2 C2           4.4151     4.1405    -0.8112 C.ar         1    LIG   0.0000
   3 C3           3.0238     4.1276    -0.8024 C.ar         1    LIG   0.0000
   4 C4           2.3418     3.0767    -0.1980 C.ar         1    LIG   0.0000
   5 C5           3.0697     2.0496     0.3940 C.ar         1    LIG   0.0000
   6 N6           2.3700     1.0000     1.0000 N.pl3        1    LIG   0.0000
   7 N7           1.0000     1.0000     1.0000 N.2          1    LIG   0.0000
   8 C8           0.4916    -0.1419     1.0000 C.2          1    LIG   0.0000
   9 C9           1.3443    -1.3156     1.0000 C.2          1    LIG   0.0000
  10 C10          0.9357    -2.4848     1.5876 C.2          1    LIG   0.0000
  11 S11         -0.6262    -2.5762     2.3489 S.3          1    LIG   0.0000
  12 C12         -0.6305    -1.1717     3.3763 C.2          1    LIG   0.0000
  13 N13         -0.3364     0.0664     3.0577 N.2          1    LIG   0.0000
  14 C14         -0.4146     1.0004     4.0656 C.ar         1    LIG   0.0000
  15 C15         -0.1796     2.3720     4.1017 C.ar         1    LIG   0.0000
  16 C16         -0.3337     3.1142     5.2696 C.ar         1    LIG   0.0000
  17 C17         -0.7314     2.5200     6.4647 C.ar         1    LIG   0.0000
  18 C18         -0.9780     1.1557     6.4839 C.ar         1    LIG   0.0000
  19 C19         -0.8039     0.4853     5.2834 C.ar         1    LIG   0.0000
  20 S20         -1.0370    -1.1770     5.0284 S.3          1    LIG   0.0000
  21 N21          1.7579    -3.5828     1.5763 N.2          1    LIG   0.0000
  22 C22          2.9502    -3.5472     1.0073 C.2          1    LIG   0.0000
  23 C23          3.7510    -4.7204     1.0316 C.2          1    LIG   0.0000
  24 C24          4.9918    -4.7127     0.4496 C.2          1    LIG   0.0000
  25 C25          5.4701    -3.5303    -0.1755 C.2          1    LIG   0.0000
  26 C26          4.6667    -2.4201    -0.1771 C.2          1    LIG   0.0000
  27 N27          3.4199    -2.4077     0.4011 N.pl3        1    LIG   0.0000
  28 C28          2.6272    -1.2851     0.3904 C.2          1    LIG   0.0000
  29 O29          2.9826    -0.2378    -0.1322 O.2          1    LIG   0.0000
  30 N30          4.4109     2.0804     0.3762 N.ar         1    LIG   0.0000
  31 C31          5.0862     3.0844    -0.2028 C.ar         1    LIG   0.0000
  32 H            4.4926     5.9417    -1.8487 H            1    LIG   0.0000
  33 H            5.7284     5.7535    -0.7979 H            1    LIG   0.0000
  34 H            5.7285     4.9385    -2.2129 H            1    LIG   0.0000
  35 H            2.5142     4.8738    -1.2305 H            1    LIG   0.0000
  36 H            1.3420     3.0597    -0.1893 H            1    LIG   0.0000
  37 H            2.8700     0.2500     1.4330 H            1    LIG   0.0000
  38 H           -0.5029    -0.2465     1.0000 H            1    LIG   0.0000
  39 H            0.1082     2.8377     3.2648 H            1    LIG   0.0000
  40 H           -0.1544     4.0978     5.2499 H            1    LIG   0.0000
  41 H           -0.8372     3.0678     7.2946 H            1    LIG   0.0000
  42 H           -1.2651     0.6823     7.3166 H            1    LIG   0.0000
  43 H            3.4099    -5.5505     1.4727 H            1    LIG   0.0000
  44 H            5.5584    -5.5366     0.4649 H            1    LIG   0.0000
  45 H            6.3730    -3.5085    -0.6048 H            1    LIG   0.0000
  46 H            5.0008    -1.5862    -0.6163 H            1    LIG   0.0000
  47 H            6.0861     3.0736    -0.1971 H            1    LIG   0.0000
@<TRIPOS>BOND
   1        1        2 1
   2        2        3 ar
   3        3        4 ar
   4        4        5 ar
   5        5        6 1
   6        6        7 1
   7        7        8 2
   8        8        9 1
   9        9       10 2
  10       10       11 1
  11       11       12 1
  12       12       13 2
  13       13       14 1
  14       14       15 ar
  15       15       16 ar
  16       16       17 ar
  17       17       18 ar
  18       18       19 ar
  19       19       14 ar
  20       19       20 1
  21       20       12 1
  22       10       21 1
  23       21       22 2
  24       22       23 1
  25       23       24 2
  26       24       25 1
  27       25       26 2
  28       26       27 1
  29       27       22 1
  30       27       28 1
  31       28        9 1
  32       28       29 2
  33        5       30 ar
  34       30       31 ar
  35       31        2 ar
  36        1       32 1
  37        1       33 1
  38        1       34 1
  39        3       35 1
  40        4       36 1
  41        6       37 1
  42        8       38 1
  43       15       39 1
  44       16       40 1
  45       17       41 1
  46       18       42 1
  47       23       43 1
  48       24       44 1
  49       25       45 1
  50       26       46 1
  51       31       47 1

@<TRIPOS>MOLECULE

  47   51
SMALL
USER_CHARGES
@<TRIPOS>ATOM
   1 C1           5.1544     5.2922    -1.4745 C.3          1    LIG   0.0000
   2 C2           4.4151     4.1405    -0.8112 C.ar         1    LIG   0.0000
   3 C3           3.0238     4.1276    -0.8024 C.ar         1    LIG   0.0000
   4 C4           2.3418     3.0767    -0.1980 C.ar         1    LIG   0.0000
   5 C5           3.0697     2.0496     0.3940 C.ar         1    LIG   0.0000
   6 N6           2.3700     1.0000     1.0000 N.pl3        1    LIG   0.0000
   7 N7           1.0000     1.0000     1.0000 N.2          1    LIG   0.0000
   8 C8           0.4916    -0.1419     1.0000 C.2          1    LIG   0.0000
   9 C9           1.3443    -1.3156     1.0000 C.2          1    LIG   0.0000
  10 C10          0.9357    -2.4848     1.5876 C.2          1    LIG   0.0000
  11 S11         -0.6262    -2.5762     2.3489 S.3          1    LIG   0.0000
  12 C12         -0.2502    -3.2552     3.9064 C.2          1    LIG   0.0000
  13 N13         -1.0740    -3.5392     4.8869 N.2          1    LIG   0.0000
  14 C14         -0.5183    -4.0709     6.0283 C.ar         1    LIG   0.0000
  15 C15         -1.0645    -4.4820     7.2410 C.ar         1    LIG   0.0000
  16 C16         -0.2760    -5.0011     8.2645 C.ar         1    LIG   0.0000
  17 C17          1.1033    -5.1350     8.1267 C.ar         1    LIG   0.0000
  18 C18          1.6985    -4.7397     6.9385 C.ar         1    LIG   0.0000
  19 C19          0.8491    -4.2339     5.9671 C.ar         1    LIG   0.0000
  20 S20          1.3117    -3.6811     4.4298 S.3          1    LIG   0.0000
  21 N21          1.7579    -3.5828     1.5763 N.2          1    LIG   0.0000
  22 C22          2.9502    -3.5472     1.0073 C.2          1    LIG   0.0000
  23 C23          3.7510    -4.7204     1.0316 C.2          1    LIG   0.0000
  24 C24          4.9918    -4.7127     0.4496 C.2          1    LIG   0.0000
  25 C25          5.4701    -3.5303    -0.1755 C.2          1    LIG   0.0000
  26 C26          4.6667    -2.4201    -0.1771 C.2          1    LIG   0.0000
  27 N27          3.4199    -2.4077     0.4011 N.pl3        1    LIG   0.0000
  28 C28          2.6272    -1.2851     0.3904 C.2          1    LIG   0.0000
  29 O29          2.9826    -0.2378    -0.1322 O.2          1    LIG   0.0000
  30 N30          4.4109     2.0804     0.3762 N.ar         1    LIG   0.0000
  31 C31          5.0862     3.0844    -0.2028 C.ar         1    LIG   0.0000
  32 H            4.4926     5.9417    -1.8487 H            1    LIG   0.0000
  33 H            5.7284     5.7535    -0.7979 H            1    LIG   0.0000
  34 H            5.7285     4.9385    -2.2129 H            1    LIG   0.0000
  35 H            2.5142     4.8738    -1.2305 H            1    LIG   0.0000
  36 H            1.3420     3.0597    -0.1893 H            1    LIG   0.0000
  37 H            2.8700     0.2500     1.4330 H            1    LIG   0.0000
  38 H           -0.5029    -0.2465     1.0000 H            1    LIG   0.0000
  39 H           -2.0514    -4.4022     7.3810 H            1    LIG   0.0000
  40 H           -0.7107    -5.2845     9.1193 H            1    LIG   0.0000
  41 H            1.6549    -5.5099     8.8719 H            1    LIG   0.0000
  42 H            2.6846    -4.8152     6.7907 H            1    LIG   0.0000
  43 H            3.4099    -5.5505     1.4727 H            1    LIG   0.0000
  44 H            5.5584    -5.5366     0.4649 H            1    LIG   0.0000
  45 H            6.3730    -3.5085    -0.6048 H            1    LIG   0.0000
  46 H            5.0008    -1.5862    -0.6163 H            1    LIG   0.0000
  47 H            6.0861     3.0736    -0.1971 H            1    LIG   0.0000
@<TRIPOS>BOND
   1        1        2 1
   2        2        3 ar
   3        3        4 ar
   4        4        5 ar
   5        5        6 1
   6        6        7 1
   7        7        8 2
   8        8        9 1
   9        9       10 2
  10       10       11 1
  11       11       12 1
  12       12       13 2
  13       13       14 1
  14       14       15 ar
  15       15       16 ar
  16       16       17 ar
  17       17       18 ar
  18       18       19 ar
  19       19       14 ar
  20       19       20 1
  21       20       12 1
  22       10       21 1
  23       21       22 2
  24       22       23 1
  25       23       24 2
  26       24       25 1
  27       25       26 2
  28       26       27 1
  29       27       22 1
  30       27       28 1
  31       28        9 1
  32       28       29 2
  33        5       30 ar
  34       30       31 ar
  35       31        2 ar
  36        1       32 1
  37        1       33 1
  38        1       34 1
  39        3       35 1
  40        4       36 1
  41        6       37 1
  42        8       38 1
  43       15       39 1
  44       16       40 1
  45       17       41 1
  46       18       42 1
  47       23       43 1
  48       24       44 1
  49       25       45 1
  50       26       46 1
  51       31       47 1

@<TRIPOS>MOLECULE

  47   51
SMALL
USER_CHARGES
@<TRIPOS>ATOM
   1 C1           5.1544     5.2922    -1.4745 C.3          1    LIG   0.0000
   2 C2           4.4151     4.1405    -0.8112 C.ar         1    LIG   0.0000
   3 C3           3.0238     4.1276    -0.8024 C.ar         1    LIG   0.0000
   4 C4           2.3418     3.0767    -0.1980 C.ar         1    LIG   0.0000
   5 C5           3.0697     2.0496     0.3940 C.ar         1    LIG   0.0000
   6 N6           2.3700     1.0000     1.0000 N.pl3        1    LIG   0.0000
   7 N7           1.0000     1.0000     1.0000 N.2          1    LIG   0.0000
   8 C8           0.4916    -0.1419     1.0000 C.2          1    LIG   0.0000
   9 C9           1.3443    -1.3156     1.0000 C.2          1    LIG   0.0000
  10 C10          0.9357    -2.4848     1.5876 C.2          1    LIG   0.0000
  11 S11         -0.6262    -2.5762     2.3489 S.3          1    LIG   0.0000
  12 C12         -1.6837    -1.9371     1.1235 C.2          1    LIG   0.0000
  13 N13         -2.9846    -1.7775     1.1785 N.2          1    LIG   0.0000
  14 C14         -3.5914    -1.2488     0.0620 C.ar         1    LIG   0.0000
  15 C15         -4.9168    -0.9473    -0.2384 C.ar         1    LIG   0.0000
  16 C16         -5.2875    -0.4037    -1.4656 C.ar         1    LIG   0.0000
  17 C17         -4.3483    -0.1340    -2.4578 C.ar         1    LIG   0.0000
  18 C18         -3.0136    -0.4164    -2.2102 C.ar         1    LIG   0.0000
  19 C19         -2.7224    -0.9548    -0.9667 C.ar         1    LIG   0.0000
  20 S20         -1.1797    -1.3903    -0.4068 S.3          1    LIG   0.0000
  21 N21          1.7579    -3.5828     1.5763 N.2          1    LIG   0.0000
  22 C22          2.9502    -3.5472     1.0073 C.2          1    LIG   0.0000
  23 C23          3.7510    -4.7204     1.0316 C.2          1    LIG   0.0000
  24 C24          4.9918    -4.7127     0.4496 C.2          1    LIG   0.0000
  25 C25          5.4701    -3.5303    -0.1755 C.2          1    LIG   0.0000
  26 C26          4.6667    -2.4201    -0.1771 C.2          1    LIG   0.0000
  27 N27          3.4199    -2.4077     0.4011 N.pl3        1    LIG   0.0000
  28 C28          2.6272    -1.2851     0.3904 C.2          1    LIG   0.0000
  29 O29          2.9826    -0.2378    -0.1322 O.2          1    LIG   0.0000
  30 N30          4.4109     2.0804     0.3762 N.ar         1    LIG   0.0000
  31 C31          5.0862     3.0844    -0.2028 C.ar         1    LIG   0.0000
  32 H            4.4926     5.9417    -1.8487 H            1    LIG   0.0000
  33 H            5.7284     5.7535    -0.7979 H            1    LIG   0.0000
  34 H            5.7285     4.9385    -2.2129 H            1    LIG   0.0000
  35 H            2.5142     4.8738    -1.2305 H            1    LIG   0.0000
  36 H            1.3420     3.0597    -0.1893 H            1    LIG   0.0000
  37 H            2.8700     0.2500     1.4330 H            1    LIG   0.0000
  38 H           -0.5029    -0.2465     1.0000 H            1    LIG   0.0000
  39 H           -5.6229    -1.1261     0.4467 H            1    LIG   0.0000
  40 H           -6.2515    -0.2021    -1.6386 H            1    LIG   0.0000
  41 H           -4.6316     0.2565    -3.3337 H            1    LIG   0.0000
  42 H           -2.3015    -0.2414    -2.8901 H            1    LIG   0.0000
  43 H            3.4099    -5.5505     1.4727 H            1    LIG   0.0000
  44 H            5.5584    -5.5366     0.4649 H            1    LIG   0.0000
  45 H            6.3730    -3.5085    -0.6048 H            1    LIG   0.0000
  46 H            5.0008    -1.5862    -0.6163 H            1    LIG   0.0000
  47 H            6.0861     3.0736    -0.1971 H            1    LIG   0.0000
@<TRIPOS>BOND
   1        1        2 1
   2        2        3 ar
   3        3        4 ar
   4        4        5 ar
   5        5        6 1
   6        6        7 1
   7        7        8 2
   8        8        9 1
   9        9       10 2
  10       10       11 1
  11       11       12 1
  12       12       13 2
  13       13       14 1
  14       14       15 ar
  15       15       16 ar
  16       16       17 ar
  17       17       18 ar
  18       18       19 ar
  19       19       14 ar
  20       19       20 1
  21       20       12 1
  22       10       21 1
  23       21       22 2
  24       22       23 1
  25       23       24 2
  26       24       25 1
  27       25       26 2
  28       26       27 1
  29       27       22 1
  30       27       28 1
  31       28        9 1
  32       28       29 2
  33        5       30 ar
  34       30       31 ar
  35       31        2 ar
  36        1       32 1
  37        1       33 1
  38        1       34 1
  39        3       35 1
  40        4       36 1
  41        6       37 1
  42        8       38 1
  43       15       39 1
  44       16       40 1
  45       17       41 1
  46       18       42 1
  47       23       43 1
  48       24       44 1
  49       25       45 1
  50       26       46 1
  51       31       47 1

@<TRIPOS>MOLECULE

  47   51
SMALL
USER_CHARGES
@<TRIPOS>ATOM
   1 C1           5.1570     5.2796    -1.4934 C.3          1    LIG   0.0000
   2 C2           4.4168     4.1325    -0.8231 C.ar         1    LIG   0.0000
   3 C3           3.0877     3.8837    -1.1510 C.ar         1    LIG   0.0000
   4 C4           2.4054     2.8357    -0.5420 C.ar         1    LIG   0.0000
   5 C5           3.0697     2.0496     0.3940 C.ar         1    LIG   0.0000
   6 N6           2.3700     1.0000     1.0000 N.pl3        1    LIG   0.0000
   7 N7           1.0000     1.0000     1.0000 N.2          1    LIG   0.0000
   8 C8           0.4916    -0.1419     1.0000 C.2          1    LIG   0.0000
   9 C9           1.3443    -1.3156     1.0000 C.2          1    LIG   0.0000
  10 C10          0.9357    -2.4848     1.5876 C.2          1    LIG   0.0000
  11 S11         -0.6262    -2.5762     2.3489 S.3          1    LIG   0.0000
  12 C12         -0.9240    -4.2899     2.3995 C.2          1    LIG   0.0000
  13 N13         -1.9731    -4.9164     2.8767 N.2          1    LIG   0.0000
  14 C14         -1.9621    -6.2906     2.7993 C.ar         1    LIG   0.0000
  15 C15         -2.8738    -7.2656     3.1944 C.ar         1    LIG   0.0000
  16 C16         -2.6295    -8.6226     3.0007 C.ar         1    LIG   0.0000
  17 C17         -1.4569    -9.0746     2.4006 C.ar         1    LIG   0.0000
  18 C18         -0.5146    -8.1446     1.9889 C.ar         1    LIG   0.0000
  19 C19         -0.8288    -6.8138     2.2147 C.ar         1    LIG   0.0000
  20 S20          0.1405    -5.4795     1.8109 S.3          1    LIG   0.0000
  21 N21          1.7579    -3.5828     1.5763 N.2          1    LIG   0.0000
  22 C22          2.9502    -3.5472     1.0073 C.2          1    LIG   0.0000
  23 C23          3.7510    -4.7204     1.0316 C.2          1    LIG   0.0000
  24 C24          4.9918    -4.7127     0.4496 C.2          1    LIG   0.0000
  25 C25          5.4701    -3.5303    -0.1755 C.2          1    LIG   0.0000
  26 C26          4.6667    -2.4201    -0.1771 C.2          1    LIG   0.0000
  27 N27          3.4199    -2.4077     0.4011 N.pl3        1    LIG   0.0000
  28 C28          2.6272    -1.2851     0.3904 C.2          1    LIG   0.0000
  29 O29          2.9826    -0.2378    -0.1322 O.2          1    LIG   0.0000
  30 N30          4.3511     2.3059     0.6977 N.ar         1    LIG   0.0000
  31 C31          5.0260     3.3109     0.1201 C.ar         1    LIG   0.0000
  32 H            4.5444     5.7423    -2.1342 H            1    LIG   0.0000
  33 H            5.4646     5.9292    -0.7982 H            1    LIG   0.0000
  34 H            5.9485     4.9214    -1.9885 H            1    LIG   0.0000
  35 H            2.6229     4.4585    -1.8245 H            1    LIG   0.0000
  36 H            1.4506     2.6498    -0.7739 H            1    LIG   0.0000
  37 H            2.8700     0.2500     1.4330 H            1    LIG   0.0000
  38 H           -0.5029    -0.2465     1.0000 H            1    LIG   0.0000
  39 H           -3.7286    -6.9833     3.6298 H            1    LIG   0.0000
  40 H           -3.3127    -9.2888     3.2996 H            1    LIG   0.0000
  41 H           -1.2973   -10.0530     2.2691 H            1    LIG   0.0000
  42 H            0.3430    -8.4186     1.5536 H            1    LIG   0.0000
  43 H            3.4099    -5.5505     1.4727 H            1    LIG   0.0000
  44 H            5.5584    -5.5366     0.4649 H            1    LIG   0.0000
  45 H            6.3730    -3.5085    -0.6048 H            1    LIG   0.0000
  46 H            5.0008    -1.5862    -0.6163 H            1    LIG   0.0000
  47 H            5.9806     3.4720     0.3710 H            1    LIG   0.0000
@<TRIPOS>BOND
   1        1        2 1
   2        2        3 ar
   3        3        4 ar
   4        4        5 ar
   5        5        6 1
   6        6        7 1
   7        7        8 2
   8        8        9 1
   9        9       10 2
  10       10       11 1
  11       11       12 1
  12       12       13 2
  13       13       14 1
  14       14       15 ar
  15       15       16 ar
  16       16       17 ar
  17       17       18 ar
  18       18       19 ar
  19       19       14 ar
  20       19       20 1
  21       20       12 1
  22       10       21 1
  23       21       22 2
  24       22       23 1
  25       23       24 2
  26       24       25 1
  27       25       26 2
  28       26       27 1
  29       27       22 1
  30       27       28 1
  31       28        9 1
  32       28       29 2
  33        5       30 ar
  34       30       31 ar
  35       31        2 ar
  36        1       32 1
  37        1       33 1
  38        1       34 1
  39        3       35 1
  40        4       36 1
  41        6       37 1
  42        8       38 1
  43       15       39 1
  44       16       40 1
  45       17       41 1
  46       18       42 1
  47       23       43 1
  48       24       44 1
  49       25       45 1
  50       26       46 1
  51       31       47 1

@<TRIPOS>MOLECULE

  47   51
SMALL
USER_CHARGES
@<TRIPOS>ATOM
   1 C1           5.2087     5.2306    -1.5185 C.3          1    LIG   0.0000
   2 C2           4.4496     4.1016    -0.8387 C.ar         1    LIG   0.0000
   3 C3           4.0940     2.9717    -1.5686 C.ar         1    LIG   0.0000
   4 C4           3.4004     1.9354    -0.9524 C.ar         1    LIG   0.0000
   5 C5           3.0697     2.0496     0.3940 C.ar         1    LIG   0.0000
   6 N6           2.3700     1.0000     1.0000 N.pl3        1    LIG   0.0000
   7 N7           1.0000     1.0000     1.0000 N.2          1    LIG   0.0000
   8 C8           0.4916    -0.1419     1.0000 C.2          1    LIG   0.0000
   9 C9           1.3443    -1.3156     1.0000 C.2          1    LIG   0.0000
  10 C10          0.9357    -2.4848     1.5876 C.2          1    LIG   0.0000
  11 S11         -0.6262    -2.5762     2.3489 S.3          1    LIG   0.0000
  12 C12         -0.4538    -3.9482     3.4053 C.2          1    LIG   0.0000
  13 N13          0.5988    -4.7120     3.5767 N.2          1    LIG   0.0000
  14 C14          0.4745    -5.7448     4.4778 C.ar         1    LIG   0.0000
  15 C15          1.3544    -6.7350     4.9060 C.ar         1    LIG   0.0000
  16 C16          0.9855    -7.6877     5.8521 C.ar         1    LIG   0.0000
  17 C17         -0.2864    -7.6988     6.4190 C.ar         1    LIG   0.0000
  18 C18         -1.2021    -6.7344     6.0268 C.ar         1    LIG   0.0000
  19 C19         -0.7619    -5.8205     5.0824 C.ar         1    LIG   0.0000
  20 S20         -1.6729    -4.5438     4.4320 S.3          1    LIG   0.0000
  21 N21          1.7579    -3.5828     1.5763 N.2          1    LIG   0.0000
  22 C22          2.9502    -3.5472     1.0073 C.2          1    LIG   0.0000
  23 C23          3.7510    -4.7204     1.0316 C.2          1    LIG   0.0000
  24 C24          4.9918    -4.7127     0.4496 C.2          1    LIG   0.0000
  25 C25          5.4701    -3.5303    -0.1755 C.2          1    LIG   0.0000
  26 C26          4.6667    -2.4201    -0.1771 C.2          1    LIG   0.0000
  27 N27          3.4199    -2.4077     0.4011 N.pl3        1    LIG   0.0000
  28 C28          2.6272    -1.2851     0.3904 C.2          1    LIG   0.0000
  29 O29          2.9826    -0.2378    -0.1322 O.2          1    LIG   0.0000
  30 N30          3.4204     3.1475     1.0807 N.ar         1    LIG   0.0000
  31 C31          4.0907     4.1564     0.5044 C.ar         1    LIG   0.0000
  32 H            5.3672     4.9956    -2.4775 H            1    LIG   0.0000
  33 H            4.6715     6.0724    -1.4660 H            1    LIG   0.0000
  34 H            6.0865     5.3661    -1.0590 H            1    LIG   0.0000
  35 H            4.3371     2.9047    -2.5363 H            1    LIG   0.0000
  36 H            3.1430     1.1195    -1.4702 H            1    LIG   0.0000
  37 H            2.8700     0.2500     1.4330 H            1    LIG   0.0000
  38 H           -0.5029    -0.2465     1.0000 H            1    LIG   0.0000
  39 H            2.2778    -6.7628     4.5232 H            1    LIG   0.0000
  40 H            1.6501    -8.3809     6.1311 H            1    LIG   0.0000
  41 H           -0.5350    -8.3903     7.0973 H            1    LIG   0.0000
  42 H           -2.1277    -6.7001     6.4040 H            1    LIG   0.0000
  43 H            3.4099    -5.5505     1.4727 H            1    LIG   0.0000
  44 H            5.5584    -5.5366     0.4649 H            1    LIG   0.0000
  45 H            6.3730    -3.5085    -0.6048 H            1    LIG   0.0000
  46 H            5.0008    -1.5862    -0.6163 H            1    LIG   0.0000
  47 H            4.3358     4.9593     1.0478 H            1    LIG   0.0000
@<TRIPOS>BOND
   1        1        2 1
   2        2        3 ar
   3        3        4 ar
   4        4        5 ar
   5        5        6 1
   6        6        7 1
   7        7        8 2
   8        8        9 1
   9        9       10 2
  10       10       11 1
  11       11       12 1
  12       12       13 2
  13       13       14 1
  14       14       15 ar
  15       15       16 ar
  16       16       17 ar
  17       17       18 ar
  18       18       19 ar
  19       19       14 ar
  20       19       20 1
  21       20       12 1
  22       10       21 1
  23       21       22 2
  24       22       23 1
  25       23       24 2
  26       24       25 1
  27       25       26 2
  28       26       27 1
  29       27       22 1
  30       27       28 1
  31       28        9 1
  32       28       29 2
  33        5       30 ar
  34       30       31 ar
  35       31        2 ar
  36        1       32 1
  37        1       33 1
  38        1       34 1
  39        3       35 1
  40        4       36 1
  41        6       37 1
  42        8       38 1
  43       15       39 1
  44       16       40 1
  45       17       41 1
  46       18       42 1
  47       23       43 1
  48       24       44 1
  49       25       45 1
  50       26       46 1
  51       31       47 1

@<TRIPOS>MOLECULE

  47   51
SMALL
USER_CHARGES
@<TRIPOS>ATOM
   1 C1           5.2087     5.2306    -1.5185 C.3          1    LIG   0.0000
   2 C2           4.4496     4.1016    -0.8387 C.ar         1    LIG   0.0000
   3 C3           4.0940     2.9717    -1.5686 C.ar         1    LIG   0.0000
   4 C4           3.4004     1.9354    -0.9524 C.ar         1    LIG   0.0000
   5 C5           3.0697     2.0496     0.3940 C.ar         1    LIG   0.0000
   6 N6           2.3700     1.0000     1.0000 N.pl3        1    LIG   0.0000
   7 N7           1.0000     1.0000     1.0000 N.2          1    LIG   0.0000
   8 C8           0.4916    -0.1419     1.0000 C.2          1    LIG   0.0000
   9 C9           1.3443    -1.3156     1.0000 C.2          1    LIG   0.0000
  10 C10          0.9357    -2.4848     1.5876 C.2          1    LIG   0.0000
  11 S11         -0.6262    -2.5762     2.3489 S.3          1    LIG   0.0000
  12 C12         -1.6543    -3.0957     1.0446 C.2          1    LIG   0.0000
  13 N13         -2.3110    -2.3534     0.1852 N.2          1    LIG   0.0000
  14 C14         -3.0639    -3.0161    -0.7573 C.ar         1    LIG   0.0000
  15 C15         -3.8738    -2.5739    -1.7996 C.ar         1    LIG   0.0000
  16 C16         -4.5449    -3.4613    -2.6369 C.ar         1    LIG   0.0000
  17 C17         -4.4400    -4.8402    -2.4731 C.ar         1    LIG   0.0000
  18 C18         -3.6461    -5.3339    -1.4491 C.ar         1    LIG   0.0000
  19 C19         -3.0099    -4.3899    -0.6586 C.ar         1    LIG   0.0000
  20 S20         -1.9855    -4.7185     0.6550 S.3          1    LIG   0.0000
  21 N21          1.7579    -3.5828     1.5763 N.2          1    LIG   0.0000
  22 C22          2.9502    -3.5472     1.0073 C.2          1    LIG   0.0000
  23 C23          3.7510    -4.7204     1.0316 C.2          1    LIG   0.0000
  24 C24          4.9918    -4.7127     0.4496 C.2          1    LIG   0.0000
  25 C25          5.4701    -3.5303    -0.1755 C.2          1    LIG   0.0000
  26 C26          4.6667    -2.4201    -0.1771 C.2          1    LIG   0.0000
  27 N27          3.4199    -2.4077     0.4011 N.pl3        1    LIG   0.0000
  28 C28          2.6272    -1.2851     0.3904 C.2          1    LIG   0.0000
  29 O29          2.9826    -0.2378    -0.1322 O.2          1    LIG   0.0000
  30 N30          3.4204     3.1475     1.0807 N.ar         1    LIG   0.0000
  31 C31          4.0907     4.1564     0.5044 C.ar         1    LIG   0.0000
  32 H            5.3672     4.9956    -2.4775 H            1    LIG   0.0000
  33 H            4.6715     6.0724    -1.4660 H            1    LIG   0.0000
  34 H            6.0865     5.3661    -1.0590 H            1    LIG   0.0000
  35 H            4.3371     2.9047    -2.5363 H            1    LIG   0.0000
  36 H            3.1430     1.1195    -1.4702 H            1    LIG   0.0000
  37 H            2.8700     0.2500     1.4330 H            1    LIG   0.0000
  38 H           -0.5029    -0.2465     1.0000 H            1    LIG   0.0000
  39 H           -3.9767    -1.5909    -1.9513 H            1    LIG   0.0000
  40 H           -5.1161    -3.0995    -3.3737 H            1    LIG   0.0000
  41 H           -4.9288    -5.4636    -3.0835 H            1    LIG   0.0000
  42 H           -3.5387    -6.3153    -1.2900 H            1    LIG   0.0000
  43 H            3.4099    -5.5505     1.4727 H            1    LIG   0.0000
  44 H            5.5584    -5.5366     0.4649 H            1    LIG   0.0000
  45 H            6.3730    -3.5085    -0.6048 H            1    LIG   0.0000
  46 H            5.0008    -1.5862    -0.6163 H            1    LIG   0.0000
  47 H            4.3358     4.9593     1.0478 H            1    LIG   0.0000
@<TRIPOS>BOND
   1        1        2 1
   2        2        3 ar
   3        3        4 ar
   4        4        5 ar
   5        5        6 1
   6        6        7 1
   7        7        8 2
   8        8        9 1
   9        9       10 2
  10       10       11 1
  11       11       12 1
  12       12       13 2
  13       13       14 1
  14       14       15 ar
  15       15       16 ar
  16       16       17 ar
  17       17       18 ar
  18       18       19 ar
  19       19       14 ar
  20       19       20 1
  21       20       12 1
  22       10       21 1
  23       21       22 2
  24       22       23 1
  25       23       24 2
  26       24       25 1
  27       25       26 2
  28       26       27 1
  29       27       22 1
  30       27       28 1
  31       28        9 1
  32       28       29 2
  33        5       30 ar
  34       30       31 ar
  35       31        2 ar
  36        1       32 1
  37        1       33 1
  38        1       34 1
  39        3       35 1
  40        4       36 1
  41        6       37 1
  42        8       38 1
  43       15       39 1
  44       16       40 1
  45       17       41 1
  46       18       42 1
  47       23       43 1
  48       24       44 1
  49       25       45 1
  50       26       46 1
  51       31       47 1

