@<TRIPOS>MOLECULE
*****
 47 51 0 0 0
SMALL
USER_CHARGES

@<TRIPOS>ATOM
      1 C1          5.1570    5.2796   -1.4934 C.3     1  LIG1        0.0000
      2 C2          4.4168    4.1325   -0.8231 C.3     1  LIG1        0.0000
      3 C3          3.0877    3.8837   -1.1510 C.3     1  LIG1        0.0000
      4 C4          2.4054    2.8357   -0.5420 C.3     1  LIG1        0.0000
      5 C5          3.0697    2.0496    0.3940 C.3     1  LIG1        0.0000
      6 N6          2.3700    1.0000    1.0000 N.pl3   1  LIG1        0.0000
      7 N7          1.0000    1.0000    1.0000 N.2     1  LIG1        0.0000
      8 C8          0.4916   -0.1419    1.0000 C.2     1  LIG1        0.0000
      9 C9          1.3443   -1.3156    1.0000 C.2     1  LIG1        0.0000
     10 C10         0.9357   -2.4848    1.5876 C.2     1  LIG1        0.0000
     11 S11        -0.6262   -2.5762    2.3489 S.3     1  LIG1        0.0000
     12 C12        -0.9240   -4.2899    2.3995 C.2     1  LIG1        0.0000
     13 N13        -1.9731   -4.9164    2.8767 N.2     1  LIG1        0.0000
     14 C14        -1.9621   -6.2906    2.7993 C.3     1  LIG1        0.0000
     15 C15        -2.8738   -7.2656    3.1944 C.3     1  LIG1        0.0000
     16 C16        -2.6295   -8.6226    3.0007 C.3     1  LIG1        0.0000
     17 C17        -1.4569   -9.0746    2.4006 C.3     1  LIG1        0.0000
     18 C18        -0.5146   -8.1446    1.9889 C.3     1  LIG1        0.0000
     19 C19        -0.8288   -6.8138    2.2147 C.3     1  LIG1        0.0000
     20 S20         0.1405   -5.4795    1.8109 S.3     1  LIG1        0.0000
     21 N21         1.7579   -3.5828    1.5763 N.2     1  LIG1        0.0000
     22 C22         2.9502   -3.5472    1.0073 C.2     1  LIG1        0.0000
     23 C23         3.7510   -4.7204    1.0316 C.2     1  LIG1        0.0000
     24 C24         4.9918   -4.7127    0.4496 C.2     1  LIG1        0.0000
     25 C25         5.4701   -3.5303   -0.1755 C.2     1  LIG1        0.0000
     26 C26         4.6667   -2.4201   -0.1771 C.2     1  LIG1        0.0000
     27 N27         3.4199   -2.4077    0.4011 N.am    1  LIG1        0.0000
     28 C28         2.6272   -1.2851    0.3904 C.2     1  LIG1        0.0000
     29 O29         2.9826   -0.2378   -0.1322 O.2     1  LIG1        0.0000
     30 N30         4.3511    2.3059    0.6977 N.pl3   1  LIG1        0.0000
     31 C31         5.0260    3.3109    0.1201 C.3     1  LIG1        0.0000
     32 H           4.5444    5.7423   -2.1342 H       1  LIG1        0.0000
     33 H           5.4646    5.9292   -0.7982 H       1  LIG1        0.0000
     34 H           5.9485    4.9214   -1.9885 H       1  LIG1        0.0000
     35 H           2.6229    4.4585   -1.8245 H       1  LIG1        0.0000
     36 H           1.4506    2.6498   -0.7739 H       1  LIG1        0.0000
     37 H           2.8700    0.2500    1.4330 H       1  LIG1        0.0000
     38 H          -0.5029   -0.2465    1.0000 H       1  LIG1        0.0000
     39 H          -3.7286   -6.9833    3.6298 H       1  LIG1        0.0000
     40 H          -3.3127   -9.2888    3.2996 H       1  LIG1        0.0000
     41 H          -1.2973  -10.0530    2.2691 H       1  LIG1        0.0000
     42 H           0.3430   -8.4186    1.5536 H       1  LIG1        0.0000
     43 H           3.4099   -5.5505    1.4727 H       1  LIG1        0.0000
     44 H           5.5584   -5.5366    0.4649 H       1  LIG1        0.0000
     45 H           6.3730   -3.5085   -0.6048 H       1  LIG1        0.0000
     46 H           5.0008   -1.5862   -0.6163 H       1  LIG1        0.0000
     47 H           5.9806    3.4720    0.3710 H       1  LIG1        0.0000
@<TRIPOS>BOND
     1     1     2    1
     2     2     3   ar
     3     3     4   ar
     4     4     5   ar
     5     5     6    1
     6     6     7    1
     7     7     8    2
     8     8     9    1
     9     9    10    2
    10    10    11    1
    11    11    12    1
    12    12    13    2
    13    13    14    1
    14    14    15   ar
    15    15    16   ar
    16    16    17   ar
    17    17    18   ar
    18    18    19   ar
    19    19    14   ar
    20    19    20    1
    21    20    12    1
    22    10    21    1
    23    21    22    2
    24    22    23    1
    25    23    24    2
    26    24    25    1
    27    25    26    2
    28    26    27    1
    29    27    22    1
    30    27    28   am
    31    28     9    1
    32    28    29    2
    33     5    30   ar
    34    30    31   ar
    35    31     2   ar
    36     1    32    1
    37     1    33    1
    38     1    34    1
    39     3    35    1
    40     4    36    1
    41     6    37    1
    42     8    38    1
    43    15    39    1
    44    16    40    1
    45    17    41    1
    46    18    42    1
    47    23    43    1
    48    24    44    1
    49    25    45    1
    50    26    46    1
    51    31    47    1
