@<TRIPOS>MOLECULE
*****
 47 51 0 0 0
SMALL
USER_CHARGES

@<TRIPOS>ATOM
      1 C1          5.2141    5.2279    3.5169 C.3     1  LIG1        0.0000
      2 C2          4.4526    4.1001    2.8378 C.3     1  LIG1        0.0000
      3 C3          4.0990    2.9692    3.5672 C.3     1  LIG1        0.0000
      4 C4          3.4018    1.9347    2.9520 C.3     1  LIG1        0.0000
      5 C5          3.0697    2.0496    1.6060 C.3     1  LIG1        0.0000
      6 N6          2.3700    1.0000    1.0000 N.pl3   1  LIG1        0.0000
      7 N7          1.0000    1.0000    1.0000 N.2     1  LIG1        0.0000
      8 C8          0.4916   -0.1419    1.0000 C.2     1  LIG1        0.0000
      9 C9          1.3443   -1.3156    1.0000 C.2     1  LIG1        0.0000
     10 C10         0.9357   -2.4848    0.4124 C.2     1  LIG1        0.0000
     11 S11        -0.6267   -2.5766   -0.3478 S.3     1  LIG1        0.0000
     12 C12        -1.6834   -1.9366    0.8777 C.2     1  LIG1        0.0000
     13 N13        -2.9849   -1.7814    0.8252 N.2     1  LIG1        0.0000
     14 C14        -3.5899   -1.2443    1.9387 C.3     1  LIG1        0.0000
     15 C15        -4.9146   -0.9391    2.2384 C.3     1  LIG1        0.0000
     16 C16        -5.2841   -0.3919    3.4643 C.3     1  LIG1        0.0000
     17 C17        -4.3442   -0.1208    4.4555 C.3     1  LIG1        0.0000
     18 C18        -3.0099   -0.4055    4.2080 C.3     1  LIG1        0.0000
     19 C19        -2.7201   -0.9487    2.9663 C.3     1  LIG1        0.0000
     20 S20        -1.1784   -1.3889    2.4074 S.3     1  LIG1        0.0000
     21 N21         1.7578   -3.5829    0.4238 N.2     1  LIG1        0.0000
     22 C22         2.9501   -3.5473    0.9928 C.2     1  LIG1        0.0000
     23 C23         3.7508   -4.7206    0.9689 C.2     1  LIG1        0.0000
     24 C24         4.9915   -4.7129    1.5511 C.2     1  LIG1        0.0000
     25 C25         5.4701   -3.5303    2.1756 C.2     1  LIG1        0.0000
     26 C26         4.6668   -2.4201    2.1770 C.2     1  LIG1        0.0000
     27 N27         3.4199   -2.4077    1.5989 N.am    1  LIG1        0.0000
     28 C28         2.6272   -1.2851    1.6096 C.2     1  LIG1        0.0000
     29 O29         2.9834   -0.2372    2.1303 O.2     1  LIG1        0.0000
     30 N30         3.4204    3.1475    0.9193 N.pl3   1  LIG1        0.0000
     31 C31         4.0916    4.1560    1.4953 C.3     1  LIG1        0.0000
     32 H           5.3739    4.9923    4.4755 H       1  LIG1        0.0000
     33 H           6.0913    5.3625    3.0561 H       1  LIG1        0.0000
     34 H           4.6779    6.0704    3.4656 H       1  LIG1        0.0000
     35 H           4.3462    2.9001    4.5337 H       1  LIG1        0.0000
     36 H           3.1428    1.1196    3.4702 H       1  LIG1        0.0000
     37 H           2.8700    0.2500    0.5670 H       1  LIG1        0.0000
     38 H          -0.5029   -0.2465    1.0000 H       1  LIG1        0.0000
     39 H          -5.6211   -1.1179    1.5537 H       1  LIG1        0.0000
     40 H          -6.2479   -0.1887    3.6373 H       1  LIG1        0.0000
     41 H          -4.6266    0.2723    5.3305 H       1  LIG1        0.0000
     42 H          -2.2972   -0.2288    4.8869 H       1  LIG1        0.0000
     43 H           3.4097   -5.5507    0.5279 H       1  LIG1        0.0000
     44 H           5.5578   -5.5370    1.5363 H       1  LIG1        0.0000
     45 H           6.3731   -3.5084    2.6046 H       1  LIG1        0.0000
     46 H           5.0010   -1.5860    2.6159 H       1  LIG1        0.0000
     47 H           4.3359    4.9593    0.9521 H       1  LIG1        0.0000
@<TRIPOS>BOND
     1     1     2    1
     2     2     3   ar
     3     3     4   ar
     4     4     5   ar
     5     5     6    1
     6     6     7    1
     7     7     8    2
     8     8     9    1
     9     9    10    2
    10    10    11    1
    11    11    12    1
    12    12    13    2
    13    13    14    1
    14    14    15   ar
    15    15    16   ar
    16    16    17   ar
    17    17    18   ar
    18    18    19   ar
    19    19    14   ar
    20    19    20    1
    21    20    12    1
    22    10    21    1
    23    21    22    2
    24    22    23    1
    25    23    24    2
    26    24    25    1
    27    25    26    2
    28    26    27    1
    29    27    22    1
    30    27    28   am
    31    28     9    1
    32    28    29    2
    33     5    30   ar
    34    30    31   ar
    35    31     2   ar
    36     1    32    1
    37     1    33    1
    38     1    34    1
    39     3    35    1
    40     4    36    1
    41     6    37    1
    42     8    38    1
    43    15    39    1
    44    16    40    1
    45    17    41    1
    46    18    42    1
    47    23    43    1
    48    24    44    1
    49    25    45    1
    50    26    46    1
    51    31    47    1
