@<TRIPOS>MOLECULE
*****
 47 51 0 0 0
SMALL
USER_CHARGES

@<TRIPOS>ATOM
      1 C1          5.1544    5.2890    3.4799 C.3     1  LIG1        0.0000
      2 C2          4.4151    4.1388    2.8141 C.3     1  LIG1        0.0000
      3 C3          3.0238    4.1247    2.8074 C.3     1  LIG1        0.0000
      4 C4          2.3418    3.0759    2.1994 C.3     1  LIG1        0.0000
      5 C5          3.0697    2.0496    1.6060 C.3     1  LIG1        0.0000
      6 N6          2.3700    1.0000    1.0000 N.pl3   1  LIG1        0.0000
      7 N7          1.0000    1.0000    1.0000 N.2     1  LIG1        0.0000
      8 C8          0.4916   -0.1419    1.0000 C.2     1  LIG1        0.0000
      9 C9          1.3443   -1.3156    1.0000 C.2     1  LIG1        0.0000
     10 C10         0.9357   -2.4848    0.4124 C.2     1  LIG1        0.0000
     11 S11        -0.6267   -2.5766   -0.3478 S.3     1  LIG1        0.0000
     12 C12        -0.2810   -2.0980   -1.9848 C.2     1  LIG1        0.0000
     13 N13         0.8753   -1.7582   -2.5029 N.2     1  LIG1        0.0000
     14 C14         0.8798   -1.4147   -3.8356 C.3     1  LIG1        0.0000
     15 C15         1.8906   -1.0085   -4.7023 C.3     1  LIG1        0.0000
     16 C16         1.6385   -0.7133   -6.0395 C.3     1  LIG1        0.0000
     17 C17         0.3583   -0.8092   -6.5791 C.3     1  LIG1        0.0000
     18 C18        -0.6854   -1.2089   -5.7585 C.3     1  LIG1        0.0000
     19 C19        -0.3565   -1.4858   -4.4409 C.3     1  LIG1        0.0000
     20 S20        -1.4347   -1.9919   -3.2309 S.3     1  LIG1        0.0000
     21 N21         1.7578   -3.5829    0.4238 N.2     1  LIG1        0.0000
     22 C22         2.9501   -3.5473    0.9928 C.2     1  LIG1        0.0000
     23 C23         3.7508   -4.7206    0.9689 C.2     1  LIG1        0.0000
     24 C24         4.9915   -4.7129    1.5511 C.2     1  LIG1        0.0000
     25 C25         5.4701   -3.5303    2.1756 C.2     1  LIG1        0.0000
     26 C26         4.6668   -2.4201    2.1770 C.2     1  LIG1        0.0000
     27 N27         3.4199   -2.4077    1.5989 N.am    1  LIG1        0.0000
     28 C28         2.6272   -1.2851    1.6096 C.2     1  LIG1        0.0000
     29 O29         2.9834   -0.2372    2.1303 O.2     1  LIG1        0.0000
     30 N30         4.4109    2.0804    1.6238 N.pl3   1  LIG1        0.0000
     31 C31         5.0862    3.0838    2.2037 C.3     1  LIG1        0.0000
     32 H           4.4926    5.9379    3.8553 H       1  LIG1        0.0000
     33 H           5.7284    4.9338    4.2177 H       1  LIG1        0.0000
     34 H           5.7285    5.7517    2.8044 H       1  LIG1        0.0000
     35 H           2.5142    4.8686    3.2396 H       1  LIG1        0.0000
     36 H           1.3420    3.0598    2.1891 H       1  LIG1        0.0000
     37 H           2.8700    0.2500    0.5670 H       1  LIG1        0.0000
     38 H          -0.5029   -0.2465    1.0000 H       1  LIG1        0.0000
     39 H           2.8246   -0.9263   -4.3545 H       1  LIG1        0.0000
     40 H           2.3951   -0.4255   -6.6266 H       1  LIG1        0.0000
     41 H           0.1946   -0.5935   -7.5417 H       1  LIG1        0.0000
     42 H          -1.6223   -1.2927   -6.0981 H       1  LIG1        0.0000
     43 H           3.4097   -5.5507    0.5279 H       1  LIG1        0.0000
     44 H           5.5578   -5.5370    1.5363 H       1  LIG1        0.0000
     45 H           6.3731   -3.5084    2.6046 H       1  LIG1        0.0000
     46 H           5.0010   -1.5860    2.6159 H       1  LIG1        0.0000
     47 H           6.0861    3.0736    2.1972 H       1  LIG1        0.0000
@<TRIPOS>BOND
     1     1     2    1
     2     2     3   ar
     3     3     4   ar
     4     4     5   ar
     5     5     6    1
     6     6     7    1
     7     7     8    2
     8     8     9    1
     9     9    10    2
    10    10    11    1
    11    11    12    1
    12    12    13    2
    13    13    14    1
    14    14    15   ar
    15    15    16   ar
    16    16    17   ar
    17    17    18   ar
    18    18    19   ar
    19    19    14   ar
    20    19    20    1
    21    20    12    1
    22    10    21    1
    23    21    22    2
    24    22    23    1
    25    23    24    2
    26    24    25    1
    27    25    26    2
    28    26    27    1
    29    27    22    1
    30    27    28   am
    31    28     9    1
    32    28    29    2
    33     5    30   ar
    34    30    31   ar
    35    31     2   ar
    36     1    32    1
    37     1    33    1
    38     1    34    1
    39     3    35    1
    40     4    36    1
    41     6    37    1
    42     8    38    1
    43    15    39    1
    44    16    40    1
    45    17    41    1
    46    18    42    1
    47    23    43    1
    48    24    44    1
    49    25    45    1
    50    26    46    1
    51    31    47    1
