@<TRIPOS>MOLECULE
*****
 47 51 0 0 0
SMALL
USER_CHARGES

@<TRIPOS>ATOM
      1 C1          5.1544    5.2922   -1.4745 C.3     1  LIG1        0.0000
      2 C2          4.4151    4.1405   -0.8112 C.3     1  LIG1        0.0000
      3 C3          3.0238    4.1276   -0.8024 C.3     1  LIG1        0.0000
      4 C4          2.3418    3.0767   -0.1980 C.3     1  LIG1        0.0000
      5 C5          3.0697    2.0496    0.3940 C.3     1  LIG1        0.0000
      6 N6          2.3700    1.0000    1.0000 N.pl3   1  LIG1        0.0000
      7 N7          1.0000    1.0000    1.0000 N.2     1  LIG1        0.0000
      8 C8          0.4916   -0.1419    1.0000 C.2     1  LIG1        0.0000
      9 C9          1.3443   -1.3156    1.0000 C.2     1  LIG1        0.0000
     10 C10         0.9357   -2.4848    1.5876 C.2     1  LIG1        0.0000
     11 S11        -0.6262   -2.5762    2.3489 S.3     1  LIG1        0.0000
     12 C12        -0.6305   -1.1717    3.3763 C.2     1  LIG1        0.0000
     13 N13        -0.3364    0.0664    3.0577 N.2     1  LIG1        0.0000
     14 C14        -0.4146    1.0004    4.0656 C.3     1  LIG1        0.0000
     15 C15        -0.1796    2.3720    4.1017 C.3     1  LIG1        0.0000
     16 C16        -0.3337    3.1142    5.2696 C.3     1  LIG1        0.0000
     17 C17        -0.7314    2.5200    6.4647 C.3     1  LIG1        0.0000
     18 C18        -0.9780    1.1557    6.4839 C.3     1  LIG1        0.0000
     19 C19        -0.8039    0.4853    5.2834 C.3     1  LIG1        0.0000
     20 S20        -1.0370   -1.1770    5.0284 S.3     1  LIG1        0.0000
     21 N21         1.7579   -3.5828    1.5763 N.2     1  LIG1        0.0000
     22 C22         2.9502   -3.5472    1.0073 C.2     1  LIG1        0.0000
     23 C23         3.7510   -4.7204    1.0316 C.2     1  LIG1        0.0000
     24 C24         4.9918   -4.7127    0.4496 C.2     1  LIG1        0.0000
     25 C25         5.4701   -3.5303   -0.1755 C.2     1  LIG1        0.0000
     26 C26         4.6667   -2.4201   -0.1771 C.2     1  LIG1        0.0000
     27 N27         3.4199   -2.4077    0.4011 N.am    1  LIG1        0.0000
     28 C28         2.6272   -1.2851    0.3904 C.2     1  LIG1        0.0000
     29 O29         2.9826   -0.2378   -0.1322 O.2     1  LIG1        0.0000
     30 N30         4.4109    2.0804    0.3762 N.pl3   1  LIG1        0.0000
     31 C31         5.0862    3.0844   -0.2028 C.3     1  LIG1        0.0000
     32 H           4.4926    5.9417   -1.8487 H       1  LIG1        0.0000
     33 H           5.7284    5.7535   -0.7979 H       1  LIG1        0.0000
     34 H           5.7285    4.9385   -2.2129 H       1  LIG1        0.0000
     35 H           2.5142    4.8738   -1.2305 H       1  LIG1        0.0000
     36 H           1.3420    3.0597   -0.1893 H       1  LIG1        0.0000
     37 H           2.8700    0.2500    1.4330 H       1  LIG1        0.0000
     38 H          -0.5029   -0.2465    1.0000 H       1  LIG1        0.0000
     39 H           0.1082    2.8377    3.2648 H       1  LIG1        0.0000
     40 H          -0.1544    4.0978    5.2499 H       1  LIG1        0.0000
     41 H          -0.8372    3.0678    7.2946 H       1  LIG1        0.0000
     42 H          -1.2651    0.6823    7.3166 H       1  LIG1        0.0000
     43 H           3.4099   -5.5505    1.4727 H       1  LIG1        0.0000
     44 H           5.5584   -5.5366    0.4649 H       1  LIG1        0.0000
     45 H           6.3730   -3.5085   -0.6048 H       1  LIG1        0.0000
     46 H           5.0008   -1.5862   -0.6163 H       1  LIG1        0.0000
     47 H           6.0861    3.0736   -0.1971 H       1  LIG1        0.0000
@<TRIPOS>BOND
     1     1     2    1
     2     2     3   ar
     3     3     4   ar
     4     4     5   ar
     5     5     6    1
     6     6     7    1
     7     7     8    2
     8     8     9    1
     9     9    10    2
    10    10    11    1
    11    11    12    1
    12    12    13    2
    13    13    14    1
    14    14    15   ar
    15    15    16   ar
    16    16    17   ar
    17    17    18   ar
    18    18    19   ar
    19    19    14   ar
    20    19    20    1
    21    20    12    1
    22    10    21    1
    23    21    22    2
    24    22    23    1
    25    23    24    2
    26    24    25    1
    27    25    26    2
    28    26    27    1
    29    27    22    1
    30    27    28   am
    31    28     9    1
    32    28    29    2
    33     5    30   ar
    34    30    31   ar
    35    31     2   ar
    36     1    32    1
    37     1    33    1
    38     1    34    1
    39     3    35    1
    40     4    36    1
    41     6    37    1
    42     8    38    1
    43    15    39    1
    44    16    40    1
    45    17    41    1
    46    18    42    1
    47    23    43    1
    48    24    44    1
    49    25    45    1
    50    26    46    1
    51    31    47    1
