@<TRIPOS>MOLECULE
*****
 47 51 0 0 0
SMALL
USER_CHARGES

@<TRIPOS>ATOM
      1 C1          5.2659    5.2251    3.4619 C.3     1  LIG1        0.0000
      2 C2          4.4854    4.0982    2.8033 C.3     1  LIG1        0.0000
      3 C3          5.1053    2.8749    2.5685 C.3     1  LIG1        0.0000
      4 C4          4.3967    1.8400    1.9672 C.3     1  LIG1        0.0000
      5 C5          3.0697    2.0496    1.6060 C.3     1  LIG1        0.0000
      6 N6          2.3700    1.0000    1.0000 N.pl3   1  LIG1        0.0000
      7 N7          1.0000    1.0000    1.0000 N.2     1  LIG1        0.0000
      8 C8          0.4916   -0.1419    1.0000 C.2     1  LIG1        0.0000
      9 C9          1.3443   -1.3156    1.0000 C.2     1  LIG1        0.0000
     10 C10         0.9357   -2.4848    0.4124 C.2     1  LIG1        0.0000
     11 S11        -0.6267   -2.5766   -0.3478 S.3     1  LIG1        0.0000
     12 C12        -0.6315   -1.1727   -1.3761 C.2     1  LIG1        0.0000
     13 N13        -0.2305   -1.0790   -2.6216 N.2     1  LIG1        0.0000
     14 C14        -0.3376    0.1582   -3.2152 C.3     1  LIG1        0.0000
     15 C15        -0.0182    0.6257   -4.4870 C.3     1  LIG1        0.0000
     16 C16        -0.2274    1.9516   -4.8572 C.3     1  LIG1        0.0000
     17 C17        -0.7678    2.8801   -3.9711 C.3     1  LIG1        0.0000
     18 C18        -1.1031    2.4666   -2.6908 C.3     1  LIG1        0.0000
     19 C19        -0.8664    1.1330   -2.3967 C.3     1  LIG1        0.0000
     20 S20        -1.1832    0.3690   -0.9139 S.3     1  LIG1        0.0000
     21 N21         1.7578   -3.5829    0.4238 N.2     1  LIG1        0.0000
     22 C22         2.9501   -3.5473    0.9928 C.2     1  LIG1        0.0000
     23 C23         3.7508   -4.7206    0.9689 C.2     1  LIG1        0.0000
     24 C24         4.9915   -4.7129    1.5511 C.2     1  LIG1        0.0000
     25 C25         5.4701   -3.5303    2.1756 C.2     1  LIG1        0.0000
     26 C26         4.6668   -2.4201    2.1770 C.2     1  LIG1        0.0000
     27 N27         3.4199   -2.4077    1.5989 N.am    1  LIG1        0.0000
     28 C28         2.6272   -1.2851    1.6096 C.2     1  LIG1        0.0000
     29 O29         2.9834   -0.2372    2.1303 O.2     1  LIG1        0.0000
     30 N30         2.4897    3.2366    1.8396 N.pl3   1  LIG1        0.0000
     31 C31         3.1562    4.2459    2.4196 C.3     1  LIG1        0.0000
     32 H           6.1967    4.9162    3.6572 H       1  LIG1        0.0000
     33 H           5.2982    6.0124    2.8462 H       1  LIG1        0.0000
     34 H           4.8159    5.4877    4.3155 H       1  LIG1        0.0000
     35 H           6.0605    2.7397    2.8321 H       1  LIG1        0.0000
     36 H           4.8351    0.9575    1.7968 H       1  LIG1        0.0000
     37 H           2.8700    0.2500    0.5670 H       1  LIG1        0.0000
     38 H          -0.5029   -0.2465    1.0000 H       1  LIG1        0.0000
     39 H           0.3726   -0.0088   -5.1537 H       1  LIG1        0.0000
     40 H           0.0163    2.2442   -5.7819 H       1  LIG1        0.0000
     41 H          -0.9115    3.8286   -4.2532 H       1  LIG1        0.0000
     42 H          -1.4934    3.0949   -2.0178 H       1  LIG1        0.0000
     43 H           3.4097   -5.5507    0.5279 H       1  LIG1        0.0000
     44 H           5.5578   -5.5370    1.5363 H       1  LIG1        0.0000
     45 H           6.3731   -3.5084    2.6046 H       1  LIG1        0.0000
     46 H           5.0010   -1.5860    2.6159 H       1  LIG1        0.0000
     47 H           2.6911    5.1168    2.5786 H       1  LIG1        0.0000
@<TRIPOS>BOND
     1     1     2    1
     2     2     3   ar
     3     3     4   ar
     4     4     5   ar
     5     5     6    1
     6     6     7    1
     7     7     8    2
     8     8     9    1
     9     9    10    2
    10    10    11    1
    11    11    12    1
    12    12    13    2
    13    13    14    1
    14    14    15   ar
    15    15    16   ar
    16    16    17   ar
    17    17    18   ar
    18    18    19   ar
    19    19    14   ar
    20    19    20    1
    21    20    12    1
    22    10    21    1
    23    21    22    2
    24    22    23    1
    25    23    24    2
    26    24    25    1
    27    25    26    2
    28    26    27    1
    29    27    22    1
    30    27    28   am
    31    28     9    1
    32    28    29    2
    33     5    30   ar
    34    30    31   ar
    35    31     2   ar
    36     1    32    1
    37     1    33    1
    38     1    34    1
    39     3    35    1
    40     4    36    1
    41     6    37    1
    42     8    38    1
    43    15    39    1
    44    16    40    1
    45    17    41    1
    46    18    42    1
    47    23    43    1
    48    24    44    1
    49    25    45    1
    50    26    46    1
    51    31    47    1
