@<TRIPOS>MOLECULE

  26   27
SMALL
USER_CHARGES
@<TRIPOS>ATOM
   1 N1           3.5829     2.1362    -0.0244 N.pl3        1    LIG   0.0000
   2 C2           2.3719     1.4346    -0.0164 C.2          1    LIG   0.0000
   3 C3           1.1612     2.0783     0.0005 C.2          1    LIG   0.0000
   4 N4          -0.0178     1.3772     0.0083 N.pl3        1    LIG   0.0000
   5 C5          -1.2394     2.0620     0.0249 C.ar         1    LIG   0.0000
   6 C6          -2.0354     2.0361     1.1649 C.ar         1    LIG   0.0000
   7 C7          -3.2434     2.7254     1.1512 C.ar         1    LIG   0.0000
   8 N8          -3.6321     3.4016     0.0603 N.ar         1    LIG   0.0000
   9 C9          -2.8748     3.4362    -1.0463 C.ar         1    LIG   0.0000
  10 C10         -1.6557     2.7681    -1.0986 C.ar         1    LIG   0.0000
  11 C11         -0.8034     2.8119    -2.3564 C.3          1    LIG   0.0000
  12 F12          0.4386     3.1659    -2.0383 F            1    LIG   0.0000
  13 F13         -0.7898     1.6095    -2.9248 F            1    LIG   0.0000
  14 F14         -1.3131     3.6985    -3.2067 F            1    LIG   0.0000
  15 C15         -0.0024     0.0056     0.0010 C.2          1    LIG   0.0000
  16 C16          1.1753    -0.6969    -0.0150 C.2          1    LIG   0.0000
  17 C17          2.4062     0.0142    -0.0245 C.2          1    LIG   0.0000
  18 O18          3.4714    -0.5823    -0.0389 O.2          1    LIG   0.0000
  19 H            3.5815     3.1362    -0.0190 H            1    LIG   0.0000
  20 H            4.4496     1.6376    -0.0357 H            1    LIG   0.0000
  21 H            1.1374     3.0780     0.0073 H            1    LIG   0.0000
  22 H           -1.7451     1.5320     1.9783 H            1    LIG   0.0000
  23 H           -3.8277     2.7166     1.9627 H            1    LIG   0.0000
  24 H           -3.1907     3.9492    -1.8444 H            1    LIG   0.0000
  25 H           -0.8691    -0.4932     0.0075 H            1    LIG   0.0000
  26 H            1.1683    -1.6969    -0.0199 H            1    LIG   0.0000
@<TRIPOS>BOND
   1        1        2 1
   2        2        3 2
   3        3        4 1
   4        4        5 1
   5        5        6 ar
   6        6        7 ar
   7        7        8 ar
   8        8        9 ar
   9        9       10 ar
  10       10        5 ar
  11       10       11 1
  12       11       12 1
  13       11       13 1
  14       11       14 1
  15        4       15 1
  16       15       16 2
  17       16       17 1
  18       17        2 1
  19       17       18 2
  20        1       19 1
  21        1       20 1
  22        3       21 1
  23        6       22 1
  24        7       23 1
  25        9       24 1
  26       15       25 1
  27       16       26 1

@<TRIPOS>MOLECULE

  26   27
SMALL
USER_CHARGES
@<TRIPOS>ATOM
   1 N1           3.5829     2.1362    -0.0244 N.pl3        1    LIG   0.0000
   2 C2           2.3719     1.4346    -0.0164 C.2          1    LIG   0.0000
   3 C3           1.1612     2.0783     0.0005 C.2          1    LIG   0.0000
   4 N4          -0.0178     1.3772     0.0083 N.pl3        1    LIG   0.0000
   5 C5          -1.2394     2.0620     0.0249 C.ar         1    LIG   0.0000
   6 C6          -1.9357     2.2127     1.2192 C.ar         1    LIG   0.0000
   7 C7          -3.1463     2.8973     1.2042 C.ar         1    LIG   0.0000
   8 N8          -3.6318     3.4020     0.0606 N.ar         1    LIG   0.0000
   9 C9          -2.9713     3.2652    -1.0989 C.ar         1    LIG   0.0000
  10 C10         -1.7555     2.5915    -1.1530 C.ar         1    LIG   0.0000
  11 C11         -1.0132     2.4404    -2.4708 C.3          1    LIG   0.0000
  12 F12          0.2727     2.7289    -2.2910 F            1    LIG   0.0000
  13 F13         -1.1302     1.1886    -2.9046 F            1    LIG   0.0000
  14 F14         -1.5324     3.2715    -3.3700 F            1    LIG   0.0000
  15 C15         -0.0024     0.0056     0.0010 C.2          1    LIG   0.0000
  16 C16          1.1753    -0.6969    -0.0150 C.2          1    LIG   0.0000
  17 C17          2.4062     0.0142    -0.0245 C.2          1    LIG   0.0000
  18 O18          3.4714    -0.5823    -0.0389 O.2          1    LIG   0.0000
  19 H            3.5815     3.1362    -0.0190 H            1    LIG   0.0000
  20 H            4.4496     1.6376    -0.0357 H            1    LIG   0.0000
  21 H            1.1374     3.0780     0.0073 H            1    LIG   0.0000
  22 H           -1.5731     1.8364     2.0718 H            1    LIG   0.0000
  23 H           -3.6597     3.0141     2.0544 H            1    LIG   0.0000
  24 H           -3.3582     3.6527    -1.9357 H            1    LIG   0.0000
  25 H           -0.8691    -0.4932     0.0075 H            1    LIG   0.0000
  26 H            1.1683    -1.6969    -0.0199 H            1    LIG   0.0000
@<TRIPOS>BOND
   1        1        2 1
   2        2        3 2
   3        3        4 1
   4        4        5 1
   5        5        6 ar
   6        6        7 ar
   7        7        8 ar
   8        8        9 ar
   9        9       10 ar
  10       10        5 ar
  11       10       11 1
  12       11       12 1
  13       11       13 1
  14       11       14 1
  15        4       15 1
  16       15       16 2
  17       16       17 1
  18       17        2 1
  19       17       18 2
  20        1       19 1
  21        1       20 1
  22        3       21 1
  23        6       22 1
  24        7       23 1
  25        9       24 1
  26       15       25 1
  27       16       26 1

@<TRIPOS>MOLECULE

  26   27
SMALL
USER_CHARGES
@<TRIPOS>ATOM
   1 N1           3.5829     2.1362    -0.0244 N.pl3        1    LIG   0.0000
   2 C2           2.3719     1.4346    -0.0164 C.2          1    LIG   0.0000
   3 C3           1.1612     2.0783     0.0005 C.2          1    LIG   0.0000
   4 N4          -0.0178     1.3772     0.0083 N.pl3        1    LIG   0.0000
   5 C5          -1.2394     2.0620     0.0249 C.ar         1    LIG   0.0000
   6 C6          -2.0589     2.0491    -1.0985 C.ar         1    LIG   0.0000
   7 C7          -3.2659     2.7387    -1.0522 C.ar         1    LIG   0.0000
   8 N8          -3.6317     3.4024     0.0542 N.ar         1    LIG   0.0000
   9 C9          -2.8522     3.4234     1.1456 C.ar         1    LIG   0.0000
  10 C10         -1.6327     2.7544     1.1651 C.ar         1    LIG   0.0000
  11 C11         -0.7547     2.7832     2.4057 C.3          1    LIG   0.0000
  12 F12         -1.5179     2.6923     3.4911 F            1    LIG   0.0000
  13 F13          0.0929     1.7588     2.3728 F            1    LIG   0.0000
  14 F14         -0.0710     3.9235     2.4386 F            1    LIG   0.0000
  15 C15         -0.0024     0.0056     0.0010 C.2          1    LIG   0.0000
  16 C16          1.1753    -0.6969    -0.0150 C.2          1    LIG   0.0000
  17 C17          2.4062     0.0142    -0.0245 C.2          1    LIG   0.0000
  18 O18          3.4714    -0.5823    -0.0389 O.2          1    LIG   0.0000
  19 H            3.5815     3.1362    -0.0190 H            1    LIG   0.0000
  20 H            4.4496     1.6376    -0.0357 H            1    LIG   0.0000
  21 H            1.1374     3.0780     0.0073 H            1    LIG   0.0000
  22 H           -1.7859     1.5538    -1.9232 H            1    LIG   0.0000
  23 H           -3.8667     2.7396    -1.8516 H            1    LIG   0.0000
  24 H           -3.1517     3.9267     1.9561 H            1    LIG   0.0000
  25 H           -0.8691    -0.4932     0.0075 H            1    LIG   0.0000
  26 H            1.1683    -1.6969    -0.0199 H            1    LIG   0.0000
@<TRIPOS>BOND
   1        1        2 1
   2        2        3 2
   3        3        4 1
   4        4        5 1
   5        5        6 ar
   6        6        7 ar
   7        7        8 ar
   8        8        9 ar
   9        9       10 ar
  10       10        5 ar
  11       10       11 1
  12       11       12 1
  13       11       13 1
  14       11       14 1
  15        4       15 1
  16       15       16 2
  17       16       17 1
  18       17        2 1
  19       17       18 2
  20        1       19 1
  21        1       20 1
  22        3       21 1
  23        6       22 1
  24        7       23 1
  25        9       24 1
  26       15       25 1
  27       16       26 1

@<TRIPOS>MOLECULE

  26   27
SMALL
USER_CHARGES
@<TRIPOS>ATOM
   1 N1           3.5829     2.1362    -0.0244 N.pl3        1    LIG   0.0000
   2 C2           2.3719     1.4346    -0.0164 C.2          1    LIG   0.0000
   3 C3           1.1612     2.0783     0.0005 C.2          1    LIG   0.0000
   4 N4          -0.0178     1.3772     0.0083 N.pl3        1    LIG   0.0000
   5 C5          -1.2394     2.0620     0.0249 C.ar         1    LIG   0.0000
   6 C6          -1.9603     2.2263    -1.1529 C.ar         1    LIG   0.0000
   7 C7          -3.1699     2.9112    -1.1050 C.ar         1    LIG   0.0000
   8 N8          -3.6315     3.4029     0.0541 N.ar         1    LIG   0.0000
   9 C9          -2.9477     3.2518     1.1982 C.ar         1    LIG   0.0000
  10 C10         -1.7313     2.5771     1.2194 C.ar         1    LIG   0.0000
  11 C11         -0.9622     2.4103     2.5199 C.3          1    LIG   0.0000
  12 F12         -1.8121     2.4270     3.5428 F            1    LIG   0.0000
  13 F13         -0.3104     1.2511     2.5039 F            1    LIG   0.0000
  14 F14         -0.0912     3.4069     2.6508 F            1    LIG   0.0000
  15 C15         -0.0024     0.0056     0.0010 C.2          1    LIG   0.0000
  16 C16          1.1753    -0.6969    -0.0150 C.2          1    LIG   0.0000
  17 C17          2.4062     0.0142    -0.0245 C.2          1    LIG   0.0000
  18 O18          3.4714    -0.5823    -0.0389 O.2          1    LIG   0.0000
  19 H            3.5815     3.1362    -0.0190 H            1    LIG   0.0000
  20 H            4.4496     1.6376    -0.0357 H            1    LIG   0.0000
  21 H            1.1374     3.0780     0.0073 H            1    LIG   0.0000
  22 H           -1.6159     1.8592    -2.0170 H            1    LIG   0.0000
  23 H           -3.7005     3.0383    -1.9431 H            1    LIG   0.0000
  24 H           -3.3173     3.6291     2.0473 H            1    LIG   0.0000
  25 H           -0.8691    -0.4932     0.0075 H            1    LIG   0.0000
  26 H            1.1683    -1.6969    -0.0199 H            1    LIG   0.0000
@<TRIPOS>BOND
   1        1        2 1
   2        2        3 2
   3        3        4 1
   4        4        5 1
   5        5        6 ar
   6        6        7 ar
   7        7        8 ar
   8        8        9 ar
   9        9       10 ar
  10       10        5 ar
  11       10       11 1
  12       11       12 1
  13       11       13 1
  14       11       14 1
  15        4       15 1
  16       15       16 2
  17       16       17 1
  18       17        2 1
  19       17       18 2
  20        1       19 1
  21        1       20 1
  22        3       21 1
  23        6       22 1
  24        7       23 1
  25        9       24 1
  26       15       25 1
  27       16       26 1

@<TRIPOS>MOLECULE

  26   27
SMALL
USER_CHARGES
@<TRIPOS>ATOM
   1 N1           3.5829     2.1362    -0.0244 N.pl3        1    LIG   0.0000
   2 C2           2.3719     1.4346    -0.0164 C.2          1    LIG   0.0000
   3 C3           1.1612     2.0783     0.0005 C.2          1    LIG   0.0000
   4 N4          -0.0178     1.3772     0.0083 N.pl3        1    LIG   0.0000
   5 C5          -1.2394     2.0620     0.0249 C.ar         1    LIG   0.0000
   6 C6          -1.5404     2.9213     1.0761 C.ar         1    LIG   0.0000
   7 C7          -2.7615     3.5871     1.0651 C.ar         1    LIG   0.0000
   8 N8          -3.6307     3.4040     0.0605 N.ar         1    LIG   0.0000
   9 C9          -3.3541     2.5790    -0.9604 C.ar         1    LIG   0.0000
  10 C10         -2.1508     1.8829    -1.0102 C.ar         1    LIG   0.0000
  11 C11         -1.8449     0.9496    -2.1703 C.3          1    LIG   0.0000
  12 F12         -0.5282     0.7997    -2.2834 F            1    LIG   0.0000
  13 F13         -2.4083    -0.2344    -1.9473 F            1    LIG   0.0000
  14 F14         -2.3304     1.4668    -3.2953 F            1    LIG   0.0000
  15 C15         -0.0024     0.0056     0.0010 C.2          1    LIG   0.0000
  16 C16          1.1753    -0.6969    -0.0150 C.2          1    LIG   0.0000
  17 C17          2.4062     0.0142    -0.0245 C.2          1    LIG   0.0000
  18 O18          3.4714    -0.5823    -0.0389 O.2          1    LIG   0.0000
  19 H            3.5815     3.1362    -0.0190 H            1    LIG   0.0000
  20 H            4.4496     1.6376    -0.0357 H            1    LIG   0.0000
  21 H            1.1374     3.0780     0.0073 H            1    LIG   0.0000
  22 H           -0.8918     3.0577     1.8249 H            1    LIG   0.0000
  23 H           -2.9935     4.2083     1.8137 H            1    LIG   0.0000
  24 H           -4.0219     2.4630    -1.6957 H            1    LIG   0.0000
  25 H           -0.8691    -0.4932     0.0075 H            1    LIG   0.0000
  26 H            1.1683    -1.6969    -0.0199 H            1    LIG   0.0000
@<TRIPOS>BOND
   1        1        2 1
   2        2        3 2
   3        3        4 1
   4        4        5 1
   5        5        6 ar
   6        6        7 ar
   7        7        8 ar
   8        8        9 ar
   9        9       10 ar
  10       10        5 ar
  11       10       11 1
  12       11       12 1
  13       11       13 1
  14       11       14 1
  15        4       15 1
  16       15       16 2
  17       16       17 1
  18       17        2 1
  19       17       18 2
  20        1       19 1
  21        1       20 1
  22        3       21 1
  23        6       22 1
  24        7       23 1
  25        9       24 1
  26       15       25 1
  27       16       26 1

@<TRIPOS>MOLECULE

  26   27
SMALL
USER_CHARGES
@<TRIPOS>ATOM
   1 N1           3.5829     2.1362    -0.0244 N.pl3        1    LIG   0.0000
   2 C2           2.3719     1.4346    -0.0164 C.2          1    LIG   0.0000
   3 C3           1.1612     2.0783     0.0005 C.2          1    LIG   0.0000
   4 N4          -0.0178     1.3772     0.0083 N.pl3        1    LIG   0.0000
   5 C5          -1.2394     2.0620     0.0249 C.ar         1    LIG   0.0000
   6 C6          -1.7311     2.5776     1.2192 C.ar         1    LIG   0.0000
   7 C7          -2.9472     3.2525     1.2043 C.ar         1    LIG   0.0000
   8 N8          -3.6313     3.4030     0.0607 N.ar         1    LIG   0.0000
   9 C9          -3.1694     2.9119    -1.0989 C.ar         1    LIG   0.0000
  10 C10         -1.9600     2.2266    -1.1531 C.ar         1    LIG   0.0000
  11 C11         -1.4435     1.6727    -2.4711 C.3          1    LIG   0.0000
  12 F12         -0.1173     1.7672    -2.5023 F            1    LIG   0.0000
  13 F13         -1.7999     0.3965    -2.5857 F            1    LIG   0.0000
  14 F14         -1.9615     2.3699    -3.4784 F            1    LIG   0.0000
  15 C15         -0.0024     0.0056     0.0010 C.2          1    LIG   0.0000
  16 C16          1.1753    -0.6969    -0.0150 C.2          1    LIG   0.0000
  17 C17          2.4062     0.0142    -0.0245 C.2          1    LIG   0.0000
  18 O18          3.4714    -0.5823    -0.0389 O.2          1    LIG   0.0000
  19 H            3.5815     3.1362    -0.0190 H            1    LIG   0.0000
  20 H            4.4496     1.6376    -0.0357 H            1    LIG   0.0000
  21 H            1.1374     3.0780     0.0073 H            1    LIG   0.0000
  22 H           -1.2206     2.4653     2.0716 H            1    LIG   0.0000
  23 H           -3.3150     3.6290     2.0545 H            1    LIG   0.0000
  24 H           -3.7016     3.0401    -1.9358 H            1    LIG   0.0000
  25 H           -0.8691    -0.4932     0.0075 H            1    LIG   0.0000
  26 H            1.1683    -1.6969    -0.0199 H            1    LIG   0.0000
@<TRIPOS>BOND
   1        1        2 1
   2        2        3 2
   3        3        4 1
   4        4        5 1
   5        5        6 ar
   6        6        7 ar
   7        7        8 ar
   8        8        9 ar
   9        9       10 ar
  10       10        5 ar
  11       10       11 1
  12       11       12 1
  13       11       13 1
  14       11       14 1
  15        4       15 1
  16       15       16 2
  17       16       17 1
  18       17        2 1
  19       17       18 2
  20        1       19 1
  21        1       20 1
  22        3       21 1
  23        6       22 1
  24        7       23 1
  25        9       24 1
  26       15       25 1
  27       16       26 1

@<TRIPOS>MOLECULE

  26   27
SMALL
USER_CHARGES
@<TRIPOS>ATOM
   1 N1           3.5829     2.1362    -0.0244 N.pl3        1    LIG   0.0000
   2 C2           2.3719     1.4346    -0.0164 C.2          1    LIG   0.0000
   3 C3           1.1612     2.0783     0.0005 C.2          1    LIG   0.0000
   4 N4          -0.0178     1.3772     0.0083 N.pl3        1    LIG   0.0000
   5 C5          -1.2394     2.0620     0.0249 C.ar         1    LIG   0.0000
   6 C6          -1.8332     2.3950     1.2375 C.ar         1    LIG   0.0000
   7 C7          -3.0466     3.0747     1.2220 C.ar         1    LIG   0.0000
   8 N8          -3.6316     3.4025     0.0607 N.ar         1    LIG   0.0000
   9 C9          -3.0706     3.0887    -1.1166 C.ar         1    LIG   0.0000
  10 C10         -1.8579     2.4092    -1.1713 C.ar         1    LIG   0.0000
  11 C11         -1.2287     2.0568    -2.5095 C.3          1    LIG   0.0000
  12 F12          0.0846     2.2575    -2.4483 F            1    LIG   0.0000
  13 F13         -1.4695     0.7792    -2.7898 F            1    LIG   0.0000
  14 F14         -1.7508     2.8255    -3.4610 F            1    LIG   0.0000
  15 C15         -0.0024     0.0056     0.0010 C.2          1    LIG   0.0000
  16 C16          1.1753    -0.6969    -0.0150 C.2          1    LIG   0.0000
  17 C17          2.4062     0.0142    -0.0245 C.2          1    LIG   0.0000
  18 O18          3.4714    -0.5823    -0.0389 O.2          1    LIG   0.0000
  19 H            3.5815     3.1362    -0.0190 H            1    LIG   0.0000
  20 H            4.4496     1.6376    -0.0357 H            1    LIG   0.0000
  21 H            1.1374     3.0780     0.0073 H            1    LIG   0.0000
  22 H           -1.3965     2.1507     2.1033 H            1    LIG   0.0000
  23 H           -3.4870     3.3214     2.0853 H            1    LIG   0.0000
  24 H           -3.5302     3.3466    -1.9665 H            1    LIG   0.0000
  25 H           -0.8691    -0.4932     0.0075 H            1    LIG   0.0000
  26 H            1.1683    -1.6969    -0.0199 H            1    LIG   0.0000
@<TRIPOS>BOND
   1        1        2 1
   2        2        3 2
   3        3        4 1
   4        4        5 1
   5        5        6 ar
   6        6        7 ar
   7        7        8 ar
   8        8        9 ar
   9        9       10 ar
  10       10        5 ar
  11       10       11 1
  12       11       12 1
  13       11       13 1
  14       11       14 1
  15        4       15 1
  16       15       16 2
  17       16       17 1
  18       17        2 1
  19       17       18 2
  20        1       19 1
  21        1       20 1
  22        3       21 1
  23        6       22 1
  24        7       23 1
  25        9       24 1
  26       15       25 1
  27       16       26 1

@<TRIPOS>MOLECULE

  26   27
SMALL
USER_CHARGES
@<TRIPOS>ATOM
   1 N1           3.5829     2.1362    -0.0244 N.pl3        1    LIG   0.0000
   2 C2           2.3719     1.4346    -0.0164 C.2          1    LIG   0.0000
   3 C3           1.1612     2.0783     0.0005 C.2          1    LIG   0.0000
   4 N4          -0.0178     1.3772     0.0083 N.pl3        1    LIG   0.0000
   5 C5          -1.2394     2.0620     0.0249 C.ar         1    LIG   0.0000
   6 C6          -1.5621     2.9332    -1.0099 C.ar         1    LIG   0.0000
   7 C7          -2.7822     3.5993    -0.9655 C.ar         1    LIG   0.0000
   8 N8          -3.6304     3.4047     0.0548 N.ar         1    LIG   0.0000
   9 C9          -3.3333     2.5672     1.0596 C.ar         1    LIG   0.0000
  10 C10         -2.1296     1.8702     1.0761 C.ar         1    LIG   0.0000
  11 C11         -1.8000     0.9231     2.2185 C.3          1    LIG   0.0000
  12 F12         -2.1964     1.4608     3.3685 F            1    LIG   0.0000
  13 F13         -2.4282    -0.2340     2.0303 F            1    LIG   0.0000
  14 F14         -0.4871     0.7138     2.2561 F            1    LIG   0.0000
  15 C15         -0.0024     0.0056     0.0010 C.2          1    LIG   0.0000
  16 C16          1.1753    -0.6969    -0.0150 C.2          1    LIG   0.0000
  17 C17          2.4062     0.0142    -0.0245 C.2          1    LIG   0.0000
  18 O18          3.4714    -0.5823    -0.0389 O.2          1    LIG   0.0000
  19 H            3.5815     3.1362    -0.0190 H            1    LIG   0.0000
  20 H            4.4496     1.6376    -0.0357 H            1    LIG   0.0000
  21 H            1.1374     3.0780     0.0073 H            1    LIG   0.0000
  22 H           -0.9295     3.0778    -1.7707 H            1    LIG   0.0000
  23 H           -3.0294     4.2295    -1.7016 H            1    LIG   0.0000
  24 H           -3.9859     2.4422     1.8069 H            1    LIG   0.0000
  25 H           -0.8691    -0.4932     0.0075 H            1    LIG   0.0000
  26 H            1.1683    -1.6969    -0.0199 H            1    LIG   0.0000
@<TRIPOS>BOND
   1        1        2 1
   2        2        3 2
   3        3        4 1
   4        4        5 1
   5        5        6 ar
   6        6        7 ar
   7        7        8 ar
   8        8        9 ar
   9        9       10 ar
  10       10        5 ar
  11       10       11 1
  12       11       12 1
  13       11       13 1
  14       11       14 1
  15        4       15 1
  16       15       16 2
  17       16       17 1
  18       17        2 1
  19       17       18 2
  20        1       19 1
  21        1       20 1
  22        3       21 1
  23        6       22 1
  24        7       23 1
  25        9       24 1
  26       15       25 1
  27       16       26 1

@<TRIPOS>MOLECULE

  26   27
SMALL
USER_CHARGES
@<TRIPOS>ATOM
   1 N1           3.5829     2.1362    -0.0244 N.pl3        1    LIG   0.0000
   2 C2           2.3719     1.4346    -0.0164 C.2          1    LIG   0.0000
   3 C3           1.1612     2.0783     0.0005 C.2          1    LIG   0.0000
   4 N4          -0.0178     1.3772     0.0083 N.pl3        1    LIG   0.0000
   5 C5          -1.2394     2.0620     0.0249 C.ar         1    LIG   0.0000
   6 C6          -1.7558     2.5911    -1.1529 C.ar         1    LIG   0.0000
   7 C7          -2.9708     3.2664    -1.1049 C.ar         1    LIG   0.0000
   8 N8          -3.6309     3.4039     0.0543 N.ar         1    LIG   0.0000
   9 C9          -3.1457     2.8984     1.1982 C.ar         1    LIG   0.0000
  10 C10         -1.9359     2.2122     1.2193 C.ar         1    LIG   0.0000
  11 C11         -1.3926     1.6426     2.5197 C.3          1    LIG   0.0000
  12 F12         -2.2050     1.9698     3.5206 F            1    LIG   0.0000
  13 F13         -1.3158     0.3182     2.4257 F            1    LIG   0.0000
  14 F14         -0.1815     2.1416     2.7505 F            1    LIG   0.0000
  15 C15         -0.0024     0.0056     0.0010 C.2          1    LIG   0.0000
  16 C16          1.1753    -0.6969    -0.0150 C.2          1    LIG   0.0000
  17 C17          2.4062     0.0142    -0.0245 C.2          1    LIG   0.0000
  18 O18          3.4714    -0.5823    -0.0389 O.2          1    LIG   0.0000
  19 H            3.5815     3.1362    -0.0190 H            1    LIG   0.0000
  20 H            4.4496     1.6376    -0.0357 H            1    LIG   0.0000
  21 H            1.1374     3.0780     0.0073 H            1    LIG   0.0000
  22 H           -1.2634     2.4881    -2.0172 H            1    LIG   0.0000
  23 H           -3.3558     3.6531    -1.9429 H            1    LIG   0.0000
  24 H           -3.6607     3.0165     2.0472 H            1    LIG   0.0000
  25 H           -0.8691    -0.4932     0.0075 H            1    LIG   0.0000
  26 H            1.1683    -1.6969    -0.0199 H            1    LIG   0.0000
@<TRIPOS>BOND
   1        1        2 1
   2        2        3 2
   3        3        4 1
   4        4        5 1
   5        5        6 ar
   6        6        7 ar
   7        7        8 ar
   8        8        9 ar
   9        9       10 ar
  10       10        5 ar
  11       10       11 1
  12       11       12 1
  13       11       13 1
  14       11       14 1
  15        4       15 1
  16       15       16 2
  17       16       17 1
  18       17        2 1
  19       17       18 2
  20        1       19 1
  21        1       20 1
  22        3       21 1
  23        6       22 1
  24        7       23 1
  25        9       24 1
  26       15       25 1
  27       16       26 1

@<TRIPOS>MOLECULE

  26   27
SMALL
USER_CHARGES
@<TRIPOS>ATOM
   1 N1           3.5829     2.1362    -0.0244 N.pl3        1    LIG   0.0000
   2 C2           2.3719     1.4346    -0.0164 C.2          1    LIG   0.0000
   3 C3           1.1612     2.0783     0.0005 C.2          1    LIG   0.0000
   4 N4          -0.0178     1.3772     0.0083 N.pl3        1    LIG   0.0000
   5 C5          -1.2394     2.0620     0.0249 C.ar         1    LIG   0.0000
   6 C6          -1.8582     2.4088    -1.1712 C.ar         1    LIG   0.0000
   7 C7          -3.0705     3.0889    -1.1228 C.ar         1    LIG   0.0000
   8 N8          -3.6312     3.4034     0.0542 N.ar         1    LIG   0.0000
   9 C9          -3.0465     3.0750     1.2159 C.ar         1    LIG   0.0000
  10 C10         -1.8334     2.3946     1.2376 C.ar         1    LIG   0.0000
  11 C11         -1.1770     2.0262     2.5583 C.3          1    LIG   0.0000
  12 F12         -2.0501     2.1896     3.5481 F            1    LIG   0.0000
  13 F13         -0.7839     0.7563     2.5190 F            1    LIG   0.0000
  14 F14         -0.1226     2.8106     2.7632 F            1    LIG   0.0000
  15 C15         -0.0024     0.0056     0.0010 C.2          1    LIG   0.0000
  16 C16          1.1753    -0.6969    -0.0150 C.2          1    LIG   0.0000
  17 C17          2.4062     0.0142    -0.0245 C.2          1    LIG   0.0000
  18 O18          3.4714    -0.5823    -0.0389 O.2          1    LIG   0.0000
  19 H            3.5815     3.1362    -0.0190 H            1    LIG   0.0000
  20 H            4.4496     1.6376    -0.0357 H            1    LIG   0.0000
  21 H            1.1374     3.0780     0.0073 H            1    LIG   0.0000
  22 H           -1.4400     2.1738    -2.0486 H            1    LIG   0.0000
  23 H           -3.5284     3.3459    -1.9738 H            1    LIG   0.0000
  24 H           -3.4887     3.3226     2.0780 H            1    LIG   0.0000
  25 H           -0.8691    -0.4932     0.0075 H            1    LIG   0.0000
  26 H            1.1683    -1.6969    -0.0199 H            1    LIG   0.0000
@<TRIPOS>BOND
   1        1        2 1
   2        2        3 2
   3        3        4 1
   4        4        5 1
   5        5        6 ar
   6        6        7 ar
   7        7        8 ar
   8        8        9 ar
   9        9       10 ar
  10       10        5 ar
  11       10       11 1
  12       11       12 1
  13       11       13 1
  14       11       14 1
  15        4       15 1
  16       15       16 2
  17       16       17 1
  18       17        2 1
  19       17       18 2
  20        1       19 1
  21        1       20 1
  22        3       21 1
  23        6       22 1
  24        7       23 1
  25        9       24 1
  26       15       25 1
  27       16       26 1

