@<TRIPOS>MOLECULE
*****
 26 27 0 0 0
SMALL
USER_CHARGES

@<TRIPOS>ATOM
      1 N1          3.5829    2.1362   -0.0244 N.pl3   1  LIG1        0.0000
      2 C2          2.3719    1.4346   -0.0164 C.2     1  LIG1        0.0000
      3 C3          1.1612    2.0783    0.0005 C.2     1  LIG1        0.0000
      4 N4         -0.0178    1.3772    0.0083 N.pl3   1  LIG1        0.0000
      5 C5         -1.2394    2.0620    0.0249 C.3     1  LIG1        0.0000
      6 C6         -1.7558    2.5911   -1.1529 C.3     1  LIG1        0.0000
      7 C7         -2.9708    3.2664   -1.1049 C.3     1  LIG1        0.0000
      8 N8         -3.6309    3.4039    0.0543 N.pl3   1  LIG1        0.0000
      9 C9         -3.1457    2.8984    1.1982 C.3     1  LIG1        0.0000
     10 C10        -1.9359    2.2122    1.2193 C.3     1  LIG1        0.0000
     11 C11        -1.3926    1.6426    2.5197 C.3     1  LIG1        0.0000
     12 F12        -2.2050    1.9698    3.5206 F       1  LIG1        0.0000
     13 F13        -1.3158    0.3182    2.4257 F       1  LIG1        0.0000
     14 F14        -0.1815    2.1416    2.7505 F       1  LIG1        0.0000
     15 C15        -0.0024    0.0056    0.0010 C.2     1  LIG1        0.0000
     16 C16         1.1753   -0.6969   -0.0150 C.2     1  LIG1        0.0000
     17 C17         2.4062    0.0142   -0.0245 C.2     1  LIG1        0.0000
     18 O18         3.4714   -0.5823   -0.0389 O.2     1  LIG1        0.0000
     19 H           3.5815    3.1362   -0.0190 H       1  LIG1        0.0000
     20 H           4.4496    1.6376   -0.0357 H       1  LIG1        0.0000
     21 H           1.1374    3.0780    0.0073 H       1  LIG1        0.0000
     22 H          -1.2634    2.4881   -2.0172 H       1  LIG1        0.0000
     23 H          -3.3558    3.6531   -1.9429 H       1  LIG1        0.0000
     24 H          -3.6607    3.0165    2.0472 H       1  LIG1        0.0000
     25 H          -0.8691   -0.4932    0.0075 H       1  LIG1        0.0000
     26 H           1.1683   -1.6969   -0.0199 H       1  LIG1        0.0000
@<TRIPOS>BOND
     1     1     2    1
     2     2     3    2
     3     3     4    1
     4     4     5    1
     5     5     6   ar
     6     6     7   ar
     7     7     8   ar
     8     8     9   ar
     9     9    10   ar
    10    10     5   ar
    11    10    11    1
    12    11    12    1
    13    11    13    1
    14    11    14    1
    15     4    15    1
    16    15    16    2
    17    16    17    1
    18    17     2    1
    19    17    18    2
    20     1    19    1
    21     1    20    1
    22     3    21    1
    23     6    22    1
    24     7    23    1
    25     9    24    1
    26    15    25    1
    27    16    26    1
