@<TRIPOS>MOLECULE

  51   55
SMALL
USER_CHARGES
@<TRIPOS>ATOM
   1 C1          -5.2279     3.7114    -1.8641 C.3          1    LIG   0.0000
   2 O2          -4.0958     2.8619    -1.9792 O.3          1    LIG   0.0000
   3 C3          -3.1990     2.9492    -0.9739 C.ar         1    LIG   0.0000
   4 C4          -3.4294     3.8328     0.0756 C.ar         1    LIG   0.0000
   5 C5          -2.4984     3.9144     1.1056 C.ar         1    LIG   0.0000
   6 C6          -1.3521     3.1267     1.0942 C.ar         1    LIG   0.0000
   7 C7          -1.1422     2.2499     0.0349 C.ar         1    LIG   0.0000
   8 C8           0.0502     1.4251     0.0140 C.2          1    LIG   0.0000
   9 N9           1.2906     1.8483     0.0086 N.2          1    LIG   0.0000
  10 N10          2.1113     0.8202    -0.0137 N.pl3        1    LIG   0.0000
  11 C11          3.5090     0.9029    -0.0286 C.ar         1    LIG   0.0000
  12 C12          4.1273     2.1494    -0.0199 C.ar         1    LIG   0.0000
  13 C13          5.5152     2.2372    -0.0336 C.ar         1    LIG   0.0000
  14 C14          6.2683     1.0675    -0.0570 C.ar         1    LIG   0.0000
  15 C15          7.7858     1.1564    -0.0725 C.3          1    LIG   0.0000
  16 C16          5.6501    -0.1783    -0.0673 C.ar         1    LIG   0.0000
  17 C17          4.2621    -0.2663    -0.0528 C.ar         1    LIG   0.0000
  18 C18          1.4074    -0.3441    -0.0181 C.2          1    LIG   0.0000
  19 C19          0.0959     0.0164    -0.0018 C.2          1    LIG   0.0000
  20 C20         -1.0413    -0.8833     0.0003 C.2          1    LIG   0.0000
  21 N21         -0.9800    -2.1913    -0.0146 N.2          1    LIG   0.0000
  22 C22         -2.2771    -2.6038    -0.0045 C.2          1    LIG   0.0000
  23 C23         -2.7297    -3.9817    -0.0133 C.2          1    LIG   0.0000
  24 C24         -1.7922    -4.9819    -0.0332 C.2          1    LIG   0.0000
  25 C25         -2.2043    -6.3418    -0.0423 C.2          1    LIG   0.0000
  26 C26         -3.5442    -6.6314    -0.0307 C.2          1    LIG   0.0000
  27 N27         -4.4816    -5.6312    -0.0108 N.pl3        1    LIG   0.0000
  28 C28         -4.1128    -4.3109    -0.0016 C.2          1    LIG   0.0000
  29 O29         -4.9510    -3.4239     0.0167 O.2          1    LIG   0.0000
  30 N30         -3.0438    -1.5455     0.0142 N.2          1    LIG   0.0000
  31 O31         -2.3019    -0.5232     0.0175 O.2          1    LIG   0.0000
  32 C32         -2.0596     2.1524    -1.0058 C.ar         1    LIG   0.0000
  33 H           -5.4528    -5.8692    -0.0029 H            1    LIG   0.0000
  34 H           -5.8290     3.5743    -2.6514 H            1    LIG   0.0000
  35 H           -5.7242     3.4934    -1.0238 H            1    LIG   0.0000
  36 H           -4.9277     4.6649    -1.8360 H            1    LIG   0.0000
  37 H           -4.2522     4.4010     0.0893 H            1    LIG   0.0000
  38 H           -2.6550     4.5473     1.8639 H            1    LIG   0.0000
  39 H           -0.6872     3.1899     1.8384 H            1    LIG   0.0000
  40 H            3.5738     2.9820    -0.0037 H            1    LIG   0.0000
  41 H            5.9661     3.1298    -0.0269 H            1    LIG   0.0000
  42 H            8.1735     0.2348    -0.0886 H            1    LIG   0.0000
  43 H            8.0821     1.6570    -0.8859 H            1    LIG   0.0000
  44 H            8.1000     1.6359     0.7469 H            1    LIG   0.0000
  45 H            6.2037    -1.0110    -0.0851 H            1    LIG   0.0000
  46 H            3.8113    -1.1588    -0.0598 H            1    LIG   0.0000
  47 H            1.7777    -1.2729    -0.0306 H            1    LIG   0.0000
  48 H           -0.8185    -4.7545    -0.0414 H            1    LIG   0.0000
  49 H           -1.5266    -7.0771    -0.0569 H            1    LIG   0.0000
  50 H           -3.8422    -7.5859    -0.0369 H            1    LIG   0.0000
  51 H           -1.9026     1.5200    -1.7643 H            1    LIG   0.0000
@<TRIPOS>BOND
   1        1        2 1
   2        2        3 1
   3        3        4 ar
   4        4        5 ar
   5        5        6 ar
   6        6        7 ar
   7        7        8 1
   8        8        9 2
   9        9       10 1
  10       10       11 1
  11       11       12 ar
  12       12       13 ar
  13       13       14 ar
  14       14       15 1
  15       14       16 ar
  16       16       17 ar
  17       17       11 ar
  18       10       18 1
  19       18       19 2
  20       19        8 1
  21       19       20 1
  22       20       21 2
  23       21       22 1
  24       22       23 1
  25       23       24 2
  26       24       25 1
  27       25       26 2
  28       26       27 1
  29       27       28 1
  30       28       23 1
  31       28       29 2
  32       22       30 2
  33       30       31 1
  34       31       20 1
  35        7       32 ar
  36       32        3 ar
  37       27       33 1
  38        1       34 1
  39        1       35 1
  40        1       36 1
  41        4       37 1
  42        5       38 1
  43        6       39 1
  44       12       40 1
  45       13       41 1
  46       15       42 1
  47       15       43 1
  48       15       44 1
  49       16       45 1
  50       17       46 1
  51       18       47 1
  52       24       48 1
  53       25       49 1
  54       26       50 1
  55       32       51 1

@<TRIPOS>MOLECULE

  51   55
SMALL
USER_CHARGES
@<TRIPOS>ATOM
   1 C1          -5.2279     3.7114    -1.8641 C.3          1    LIG   0.0000
   2 O2          -4.0958     2.8619    -1.9792 O.3          1    LIG   0.0000
   3 C3          -3.1990     2.9492    -0.9739 C.ar         1    LIG   0.0000
   4 C4          -3.4294     3.8328     0.0756 C.ar         1    LIG   0.0000
   5 C5          -2.4984     3.9144     1.1056 C.ar         1    LIG   0.0000
   6 C6          -1.3521     3.1267     1.0942 C.ar         1    LIG   0.0000
   7 C7          -1.1422     2.2499     0.0349 C.ar         1    LIG   0.0000
   8 C8           0.0502     1.4251     0.0140 C.2          1    LIG   0.0000
   9 N9           1.2906     1.8483     0.0086 N.2          1    LIG   0.0000
  10 N10          2.1113     0.8202    -0.0137 N.pl3        1    LIG   0.0000
  11 C11          3.5090     0.9029    -0.0286 C.ar         1    LIG   0.0000
  12 C12          4.1273     2.1494    -0.0199 C.ar         1    LIG   0.0000
  13 C13          5.5152     2.2372    -0.0336 C.ar         1    LIG   0.0000
  14 C14          6.2683     1.0675    -0.0570 C.ar         1    LIG   0.0000
  15 C15          7.7858     1.1564    -0.0725 C.3          1    LIG   0.0000
  16 C16          5.6501    -0.1783    -0.0673 C.ar         1    LIG   0.0000
  17 C17          4.2621    -0.2663    -0.0528 C.ar         1    LIG   0.0000
  18 C18          1.4074    -0.3441    -0.0181 C.2          1    LIG   0.0000
  19 C19          0.0959     0.0164    -0.0018 C.2          1    LIG   0.0000
  20 C20         -1.0413    -0.8833     0.0003 C.2          1    LIG   0.0000
  21 N21         -0.9800    -2.1913    -0.0146 N.2          1    LIG   0.0000
  22 C22         -2.2771    -2.6038    -0.0045 C.2          1    LIG   0.0000
  23 C23         -2.7297    -3.9817    -0.0133 C.2          1    LIG   0.0000
  24 C24         -4.0777    -4.2315    -0.0012 C.2          1    LIG   0.0000
  25 C25         -4.5521    -5.5710    -0.0093 C.2          1    LIG   0.0000
  26 C26         -3.6447    -6.5984    -0.0292 C.2          1    LIG   0.0000
  27 N27         -2.2968    -6.3485    -0.0411 N.pl3        1    LIG   0.0000
  28 C28         -1.8110    -5.0666    -0.0339 C.2          1    LIG   0.0000
  29 O29         -0.6101    -4.8492    -0.0452 O.2          1    LIG   0.0000
  30 N30         -3.0438    -1.5455     0.0142 N.2          1    LIG   0.0000
  31 O31         -2.3019    -0.5232     0.0175 O.2          1    LIG   0.0000
  32 C32         -2.0596     2.1524    -1.0058 C.ar         1    LIG   0.0000
  33 H           -1.6558    -7.1159    -0.0554 H            1    LIG   0.0000
  34 H           -5.8290     3.5743    -2.6514 H            1    LIG   0.0000
  35 H           -5.7242     3.4934    -1.0238 H            1    LIG   0.0000
  36 H           -4.9277     4.6649    -1.8360 H            1    LIG   0.0000
  37 H           -4.2522     4.4010     0.0893 H            1    LIG   0.0000
  38 H           -2.6550     4.5473     1.8639 H            1    LIG   0.0000
  39 H           -0.6872     3.1899     1.8384 H            1    LIG   0.0000
  40 H            3.5738     2.9820    -0.0037 H            1    LIG   0.0000
  41 H            5.9661     3.1298    -0.0269 H            1    LIG   0.0000
  42 H            8.1735     0.2348    -0.0886 H            1    LIG   0.0000
  43 H            8.0821     1.6570    -0.8859 H            1    LIG   0.0000
  44 H            8.1000     1.6359     0.7469 H            1    LIG   0.0000
  45 H            6.2037    -1.0110    -0.0851 H            1    LIG   0.0000
  46 H            3.8113    -1.1588    -0.0598 H            1    LIG   0.0000
  47 H            1.7777    -1.2729    -0.0306 H            1    LIG   0.0000
  48 H           -4.7270    -3.4712     0.0133 H            1    LIG   0.0000
  49 H           -5.5338    -5.7614    -0.0005 H            1    LIG   0.0000
  50 H           -3.9707    -7.5437    -0.0350 H            1    LIG   0.0000
  51 H           -1.9026     1.5200    -1.7643 H            1    LIG   0.0000
@<TRIPOS>BOND
   1        1        2 1
   2        2        3 1
   3        3        4 ar
   4        4        5 ar
   5        5        6 ar
   6        6        7 ar
   7        7        8 1
   8        8        9 2
   9        9       10 1
  10       10       11 1
  11       11       12 ar
  12       12       13 ar
  13       13       14 ar
  14       14       15 1
  15       14       16 ar
  16       16       17 ar
  17       17       11 ar
  18       10       18 1
  19       18       19 2
  20       19        8 1
  21       19       20 1
  22       20       21 2
  23       21       22 1
  24       22       23 1
  25       23       24 2
  26       24       25 1
  27       25       26 2
  28       26       27 1
  29       27       28 1
  30       28       23 1
  31       28       29 2
  32       22       30 2
  33       30       31 1
  34       31       20 1
  35        7       32 ar
  36       32        3 ar
  37       27       33 1
  38        1       34 1
  39        1       35 1
  40        1       36 1
  41        4       37 1
  42        5       38 1
  43        6       39 1
  44       12       40 1
  45       13       41 1
  46       15       42 1
  47       15       43 1
  48       15       44 1
  49       16       45 1
  50       17       46 1
  51       18       47 1
  52       24       48 1
  53       25       49 1
  54       26       50 1
  55       32       51 1

@<TRIPOS>MOLECULE

  51   55
SMALL
USER_CHARGES
@<TRIPOS>ATOM
   1 C1          -5.2279     3.7114    -1.8641 C.3          1    LIG   0.0000
   2 O2          -4.0958     2.8619    -1.9792 O.3          1    LIG   0.0000
   3 C3          -3.1990     2.9492    -0.9739 C.ar         1    LIG   0.0000
   4 C4          -3.4294     3.8328     0.0756 C.ar         1    LIG   0.0000
   5 C5          -2.4984     3.9144     1.1056 C.ar         1    LIG   0.0000
   6 C6          -1.3521     3.1267     1.0942 C.ar         1    LIG   0.0000
   7 C7          -1.1422     2.2499     0.0349 C.ar         1    LIG   0.0000
   8 C8           0.0502     1.4251     0.0140 C.2          1    LIG   0.0000
   9 N9           1.2906     1.8483     0.0086 N.2          1    LIG   0.0000
  10 N10          2.1113     0.8202    -0.0137 N.pl3        1    LIG   0.0000
  11 C11          3.5090     0.9029    -0.0286 C.ar         1    LIG   0.0000
  12 C12          4.1273     2.1494    -0.0199 C.ar         1    LIG   0.0000
  13 C13          5.5152     2.2372    -0.0336 C.ar         1    LIG   0.0000
  14 C14          6.2683     1.0675    -0.0570 C.ar         1    LIG   0.0000
  15 C15          7.7858     1.1564    -0.0725 C.3          1    LIG   0.0000
  16 C16          5.6501    -0.1783    -0.0673 C.ar         1    LIG   0.0000
  17 C17          4.2621    -0.2663    -0.0528 C.ar         1    LIG   0.0000
  18 C18          1.4074    -0.3441    -0.0181 C.2          1    LIG   0.0000
  19 C19          0.0959     0.0164    -0.0018 C.2          1    LIG   0.0000
  20 C20         -1.0413    -0.8833     0.0003 C.2          1    LIG   0.0000
  21 N21         -1.3197    -1.7640    -0.9279 N.2          1    LIG   0.0000
  22 C22         -2.4627    -2.3704    -0.5052 C.2          1    LIG   0.0000
  23 C23         -3.1698    -3.4282    -1.2014 C.2          1    LIG   0.0000
  24 C24         -2.6681    -3.8803    -2.3945 C.2          1    LIG   0.0000
  25 C25         -3.3383    -4.9156    -3.1004 C.2          1    LIG   0.0000
  26 C26         -4.4850    -5.4482    -2.5704 C.2          1    LIG   0.0000
  27 N27         -4.9867    -4.9960    -1.3774 N.pl3        1    LIG   0.0000
  28 C28         -4.3609    -3.9987    -0.6750 C.2          1    LIG   0.0000
  29 O29         -4.8111    -3.5999     0.3870 O.2          1    LIG   0.0000
  30 N30         -2.8130    -1.8359     0.6349 N.2          1    LIG   0.0000
  31 O31         -1.9620    -0.9507     0.9313 O.2          1    LIG   0.0000
  32 C32         -2.0596     2.1524    -1.0058 C.ar         1    LIG   0.0000
  33 H           -5.8249    -5.4012    -1.0127 H            1    LIG   0.0000
  34 H           -5.8290     3.5743    -2.6514 H            1    LIG   0.0000
  35 H           -5.7242     3.4934    -1.0238 H            1    LIG   0.0000
  36 H           -4.9277     4.6649    -1.8360 H            1    LIG   0.0000
  37 H           -4.2522     4.4010     0.0893 H            1    LIG   0.0000
  38 H           -2.6550     4.5473     1.8639 H            1    LIG   0.0000
  39 H           -0.6872     3.1899     1.8384 H            1    LIG   0.0000
  40 H            3.5738     2.9820    -0.0037 H            1    LIG   0.0000
  41 H            5.9661     3.1298    -0.0269 H            1    LIG   0.0000
  42 H            8.1735     0.2348    -0.0886 H            1    LIG   0.0000
  43 H            8.0821     1.6570    -0.8859 H            1    LIG   0.0000
  44 H            8.1000     1.6359     0.7469 H            1    LIG   0.0000
  45 H            6.2037    -1.0110    -0.0851 H            1    LIG   0.0000
  46 H            3.8113    -1.1588    -0.0598 H            1    LIG   0.0000
  47 H            1.7777    -1.2729    -0.0306 H            1    LIG   0.0000
  48 H           -1.8305    -3.4816    -2.7680 H            1    LIG   0.0000
  49 H           -2.9787    -5.2508    -3.9712 H            1    LIG   0.0000
  50 H           -4.9624    -6.1771    -3.0611 H            1    LIG   0.0000
  51 H           -1.9026     1.5200    -1.7643 H            1    LIG   0.0000
@<TRIPOS>BOND
   1        1        2 1
   2        2        3 1
   3        3        4 ar
   4        4        5 ar
   5        5        6 ar
   6        6        7 ar
   7        7        8 1
   8        8        9 2
   9        9       10 1
  10       10       11 1
  11       11       12 ar
  12       12       13 ar
  13       13       14 ar
  14       14       15 1
  15       14       16 ar
  16       16       17 ar
  17       17       11 ar
  18       10       18 1
  19       18       19 2
  20       19        8 1
  21       19       20 1
  22       20       21 2
  23       21       22 1
  24       22       23 1
  25       23       24 2
  26       24       25 1
  27       25       26 2
  28       26       27 1
  29       27       28 1
  30       28       23 1
  31       28       29 2
  32       22       30 2
  33       30       31 1
  34       31       20 1
  35        7       32 ar
  36       32        3 ar
  37       27       33 1
  38        1       34 1
  39        1       35 1
  40        1       36 1
  41        4       37 1
  42        5       38 1
  43        6       39 1
  44       12       40 1
  45       13       41 1
  46       15       42 1
  47       15       43 1
  48       15       44 1
  49       16       45 1
  50       17       46 1
  51       18       47 1
  52       24       48 1
  53       25       49 1
  54       26       50 1
  55       32       51 1

@<TRIPOS>MOLECULE

  51   55
SMALL
USER_CHARGES
@<TRIPOS>ATOM
   1 C1          -5.2279     3.7114    -1.8641 C.3          1    LIG   0.0000
   2 O2          -4.0958     2.8619    -1.9792 O.3          1    LIG   0.0000
   3 C3          -3.1990     2.9492    -0.9739 C.ar         1    LIG   0.0000
   4 C4          -3.4294     3.8328     0.0756 C.ar         1    LIG   0.0000
   5 C5          -2.4984     3.9144     1.1056 C.ar         1    LIG   0.0000
   6 C6          -1.3521     3.1267     1.0942 C.ar         1    LIG   0.0000
   7 C7          -1.1422     2.2499     0.0349 C.ar         1    LIG   0.0000
   8 C8           0.0502     1.4251     0.0140 C.2          1    LIG   0.0000
   9 N9           1.2906     1.8483     0.0086 N.2          1    LIG   0.0000
  10 N10          2.1113     0.8202    -0.0137 N.pl3        1    LIG   0.0000
  11 C11          3.5090     0.9029    -0.0286 C.ar         1    LIG   0.0000
  12 C12          4.1273     2.1494    -0.0199 C.ar         1    LIG   0.0000
  13 C13          5.5152     2.2372    -0.0336 C.ar         1    LIG   0.0000
  14 C14          6.2683     1.0675    -0.0570 C.ar         1    LIG   0.0000
  15 C15          7.7858     1.1564    -0.0725 C.3          1    LIG   0.0000
  16 C16          5.6501    -0.1783    -0.0673 C.ar         1    LIG   0.0000
  17 C17          4.2621    -0.2663    -0.0528 C.ar         1    LIG   0.0000
  18 C18          1.4074    -0.3441    -0.0181 C.2          1    LIG   0.0000
  19 C19          0.0959     0.0164    -0.0018 C.2          1    LIG   0.0000
  20 C20         -1.0413    -0.8833     0.0003 C.2          1    LIG   0.0000
  21 N21         -1.3197    -1.7640    -0.9279 N.2          1    LIG   0.0000
  22 C22         -2.4627    -2.3704    -0.5052 C.2          1    LIG   0.0000
  23 C23         -3.1698    -3.4282    -1.2014 C.2          1    LIG   0.0000
  24 C24         -4.3130    -3.9356    -0.6399 C.2          1    LIG   0.0000
  25 C25         -5.0281    -4.9724    -1.2978 C.2          1    LIG   0.0000
  26 C26         -4.5572    -5.4507    -2.4932 C.2          1    LIG   0.0000
  27 N27         -3.4141    -4.9434    -3.0546 N.pl3        1    LIG   0.0000
  28 C28         -2.7044    -3.9430    -2.4422 C.2          1    LIG   0.0000
  29 O29         -1.6875    -3.4942    -2.9462 O.2          1    LIG   0.0000
  30 N30         -2.8130    -1.8359     0.6349 N.2          1    LIG   0.0000
  31 O31         -1.9620    -0.9507     0.9313 O.2          1    LIG   0.0000
  32 C32         -2.0596     2.1524    -1.0058 C.ar         1    LIG   0.0000
  33 H           -3.0918    -5.3099    -3.9274 H            1    LIG   0.0000
  34 H           -5.8290     3.5743    -2.6514 H            1    LIG   0.0000
  35 H           -5.7242     3.4934    -1.0238 H            1    LIG   0.0000
  36 H           -4.9277     4.6649    -1.8360 H            1    LIG   0.0000
  37 H           -4.2522     4.4010     0.0893 H            1    LIG   0.0000
  38 H           -2.6550     4.5473     1.8639 H            1    LIG   0.0000
  39 H           -0.6872     3.1899     1.8384 H            1    LIG   0.0000
  40 H            3.5738     2.9820    -0.0037 H            1    LIG   0.0000
  41 H            5.9661     3.1298    -0.0269 H            1    LIG   0.0000
  42 H            8.1735     0.2348    -0.0886 H            1    LIG   0.0000
  43 H            8.0821     1.6570    -0.8859 H            1    LIG   0.0000
  44 H            8.1000     1.6359     0.7469 H            1    LIG   0.0000
  45 H            6.2037    -1.0110    -0.0851 H            1    LIG   0.0000
  46 H            3.8113    -1.1588    -0.0598 H            1    LIG   0.0000
  47 H            1.7777    -1.2729    -0.0306 H            1    LIG   0.0000
  48 H           -4.6437    -3.5760     0.2327 H            1    LIG   0.0000
  49 H           -5.8627    -5.3478    -0.8947 H            1    LIG   0.0000
  50 H           -5.0549    -6.1802    -2.9624 H            1    LIG   0.0000
  51 H           -1.9026     1.5200    -1.7643 H            1    LIG   0.0000
@<TRIPOS>BOND
   1        1        2 1
   2        2        3 1
   3        3        4 ar
   4        4        5 ar
   5        5        6 ar
   6        6        7 ar
   7        7        8 1
   8        8        9 2
   9        9       10 1
  10       10       11 1
  11       11       12 ar
  12       12       13 ar
  13       13       14 ar
  14       14       15 1
  15       14       16 ar
  16       16       17 ar
  17       17       11 ar
  18       10       18 1
  19       18       19 2
  20       19        8 1
  21       19       20 1
  22       20       21 2
  23       21       22 1
  24       22       23 1
  25       23       24 2
  26       24       25 1
  27       25       26 2
  28       26       27 1
  29       27       28 1
  30       28       23 1
  31       28       29 2
  32       22       30 2
  33       30       31 1
  34       31       20 1
  35        7       32 ar
  36       32        3 ar
  37       27       33 1
  38        1       34 1
  39        1       35 1
  40        1       36 1
  41        4       37 1
  42        5       38 1
  43        6       39 1
  44       12       40 1
  45       13       41 1
  46       15       42 1
  47       15       43 1
  48       15       44 1
  49       16       45 1
  50       17       46 1
  51       18       47 1
  52       24       48 1
  53       25       49 1
  54       26       50 1
  55       32       51 1

@<TRIPOS>MOLECULE

  51   55
SMALL
USER_CHARGES
@<TRIPOS>ATOM
   1 C1          -5.1889     3.6683     2.0468 C.3          1    LIG   0.0000
   2 O2          -4.0547     2.8172     2.1209 O.3          1    LIG   0.0000
   3 C3          -3.1784     2.9263     1.0997 C.ar         1    LIG   0.0000
   4 C4          -3.4296     3.8325     0.0744 C.ar         1    LIG   0.0000
   5 C5          -2.5200     3.9359    -0.9725 C.ar         1    LIG   0.0000
   6 C6          -1.3734     3.1493    -1.0008 C.ar         1    LIG   0.0000
   7 C7          -1.1422     2.2499     0.0349 C.ar         1    LIG   0.0000
   8 C8           0.0502     1.4251     0.0140 C.2          1    LIG   0.0000
   9 N9           1.2906     1.8483     0.0086 N.2          1    LIG   0.0000
  10 N10          2.1113     0.8202    -0.0137 N.pl3        1    LIG   0.0000
  11 C11          3.5090     0.9029    -0.0286 C.ar         1    LIG   0.0000
  12 C12          4.1273     2.1494    -0.0199 C.ar         1    LIG   0.0000
  13 C13          5.5152     2.2372    -0.0336 C.ar         1    LIG   0.0000
  14 C14          6.2683     1.0675    -0.0570 C.ar         1    LIG   0.0000
  15 C15          7.7858     1.1564    -0.0725 C.3          1    LIG   0.0000
  16 C16          5.6501    -0.1783    -0.0673 C.ar         1    LIG   0.0000
  17 C17          4.2621    -0.2663    -0.0528 C.ar         1    LIG   0.0000
  18 C18          1.4074    -0.3441    -0.0181 C.2          1    LIG   0.0000
  19 C19          0.0959     0.0164    -0.0018 C.2          1    LIG   0.0000
  20 C20         -1.0413    -0.8833     0.0003 C.2          1    LIG   0.0000
  21 N21         -0.9800    -2.1913    -0.0146 N.2          1    LIG   0.0000
  22 C22         -2.2771    -2.6038    -0.0045 C.2          1    LIG   0.0000
  23 C23         -2.7297    -3.9817    -0.0133 C.2          1    LIG   0.0000
  24 C24         -1.7922    -4.9819    -0.0332 C.2          1    LIG   0.0000
  25 C25         -2.2043    -6.3418    -0.0423 C.2          1    LIG   0.0000
  26 C26         -3.5442    -6.6314    -0.0307 C.2          1    LIG   0.0000
  27 N27         -4.4816    -5.6312    -0.0108 N.pl3        1    LIG   0.0000
  28 C28         -4.1128    -4.3109    -0.0016 C.2          1    LIG   0.0000
  29 O29         -4.9510    -3.4239     0.0167 O.2          1    LIG   0.0000
  30 N30         -3.0438    -1.5455     0.0142 N.2          1    LIG   0.0000
  31 O31         -2.3019    -0.5232     0.0175 O.2          1    LIG   0.0000
  32 C32         -2.0385     2.1296     1.0916 C.ar         1    LIG   0.0000
  33 H           -5.4528    -5.8692    -0.0029 H            1    LIG   0.0000
  34 H           -5.7739     3.5142     2.8430 H            1    LIG   0.0000
  35 H           -4.8894     4.6223     2.0328 H            1    LIG   0.0000
  36 H           -5.7021     3.4678     1.2122 H            1    LIG   0.0000
  37 H           -4.2521     4.4011     0.0901 H            1    LIG   0.0000
  38 H           -2.6926     4.5840    -1.7143 H            1    LIG   0.0000
  39 H           -0.7232     3.2292    -1.7563 H            1    LIG   0.0000
  40 H            3.5738     2.9820    -0.0037 H            1    LIG   0.0000
  41 H            5.9661     3.1298    -0.0269 H            1    LIG   0.0000
  42 H            8.1735     0.2348    -0.0886 H            1    LIG   0.0000
  43 H            8.0821     1.6570    -0.8859 H            1    LIG   0.0000
  44 H            8.1000     1.6359     0.7469 H            1    LIG   0.0000
  45 H            6.2037    -1.0110    -0.0851 H            1    LIG   0.0000
  46 H            3.8113    -1.1588    -0.0598 H            1    LIG   0.0000
  47 H            1.7777    -1.2729    -0.0306 H            1    LIG   0.0000
  48 H           -0.8185    -4.7545    -0.0414 H            1    LIG   0.0000
  49 H           -1.5266    -7.0771    -0.0569 H            1    LIG   0.0000
  50 H           -3.8422    -7.5859    -0.0369 H            1    LIG   0.0000
  51 H           -1.8662     1.4811     1.8331 H            1    LIG   0.0000
@<TRIPOS>BOND
   1        1        2 1
   2        2        3 1
   3        3        4 ar
   4        4        5 ar
   5        5        6 ar
   6        6        7 ar
   7        7        8 1
   8        8        9 2
   9        9       10 1
  10       10       11 1
  11       11       12 ar
  12       12       13 ar
  13       13       14 ar
  14       14       15 1
  15       14       16 ar
  16       16       17 ar
  17       17       11 ar
  18       10       18 1
  19       18       19 2
  20       19        8 1
  21       19       20 1
  22       20       21 2
  23       21       22 1
  24       22       23 1
  25       23       24 2
  26       24       25 1
  27       25       26 2
  28       26       27 1
  29       27       28 1
  30       28       23 1
  31       28       29 2
  32       22       30 2
  33       30       31 1
  34       31       20 1
  35        7       32 ar
  36       32        3 ar
  37       27       33 1
  38        1       34 1
  39        1       35 1
  40        1       36 1
  41        4       37 1
  42        5       38 1
  43        6       39 1
  44       12       40 1
  45       13       41 1
  46       15       42 1
  47       15       43 1
  48       15       44 1
  49       16       45 1
  50       17       46 1
  51       18       47 1
  52       24       48 1
  53       25       49 1
  54       26       50 1
  55       32       51 1

@<TRIPOS>MOLECULE

  51   55
SMALL
USER_CHARGES
@<TRIPOS>ATOM
   1 C1          -5.1889     3.6683     2.0468 C.3          1    LIG   0.0000
   2 O2          -4.0547     2.8172     2.1209 O.3          1    LIG   0.0000
   3 C3          -3.1784     2.9263     1.0997 C.ar         1    LIG   0.0000
   4 C4          -3.4296     3.8325     0.0744 C.ar         1    LIG   0.0000
   5 C5          -2.5200     3.9359    -0.9725 C.ar         1    LIG   0.0000
   6 C6          -1.3734     3.1493    -1.0008 C.ar         1    LIG   0.0000
   7 C7          -1.1422     2.2499     0.0349 C.ar         1    LIG   0.0000
   8 C8           0.0502     1.4251     0.0140 C.2          1    LIG   0.0000
   9 N9           1.2906     1.8483     0.0086 N.2          1    LIG   0.0000
  10 N10          2.1113     0.8202    -0.0137 N.pl3        1    LIG   0.0000
  11 C11          3.5090     0.9029    -0.0286 C.ar         1    LIG   0.0000
  12 C12          4.1273     2.1494    -0.0199 C.ar         1    LIG   0.0000
  13 C13          5.5152     2.2372    -0.0336 C.ar         1    LIG   0.0000
  14 C14          6.2683     1.0675    -0.0570 C.ar         1    LIG   0.0000
  15 C15          7.7858     1.1564    -0.0725 C.3          1    LIG   0.0000
  16 C16          5.6501    -0.1783    -0.0673 C.ar         1    LIG   0.0000
  17 C17          4.2621    -0.2663    -0.0528 C.ar         1    LIG   0.0000
  18 C18          1.4074    -0.3441    -0.0181 C.2          1    LIG   0.0000
  19 C19          0.0959     0.0164    -0.0018 C.2          1    LIG   0.0000
  20 C20         -1.0413    -0.8833     0.0003 C.2          1    LIG   0.0000
  21 N21         -0.9800    -2.1913    -0.0146 N.2          1    LIG   0.0000
  22 C22         -2.2771    -2.6038    -0.0045 C.2          1    LIG   0.0000
  23 C23         -2.7297    -3.9817    -0.0133 C.2          1    LIG   0.0000
  24 C24         -4.0777    -4.2315    -0.0012 C.2          1    LIG   0.0000
  25 C25         -4.5521    -5.5710    -0.0093 C.2          1    LIG   0.0000
  26 C26         -3.6447    -6.5984    -0.0292 C.2          1    LIG   0.0000
  27 N27         -2.2968    -6.3485    -0.0411 N.pl3        1    LIG   0.0000
  28 C28         -1.8110    -5.0666    -0.0339 C.2          1    LIG   0.0000
  29 O29         -0.6101    -4.8492    -0.0452 O.2          1    LIG   0.0000
  30 N30         -3.0438    -1.5455     0.0142 N.2          1    LIG   0.0000
  31 O31         -2.3019    -0.5232     0.0175 O.2          1    LIG   0.0000
  32 C32         -2.0385     2.1296     1.0916 C.ar         1    LIG   0.0000
  33 H           -1.6558    -7.1159    -0.0554 H            1    LIG   0.0000
  34 H           -5.7739     3.5142     2.8430 H            1    LIG   0.0000
  35 H           -4.8894     4.6223     2.0328 H            1    LIG   0.0000
  36 H           -5.7021     3.4678     1.2122 H            1    LIG   0.0000
  37 H           -4.2521     4.4011     0.0901 H            1    LIG   0.0000
  38 H           -2.6926     4.5840    -1.7143 H            1    LIG   0.0000
  39 H           -0.7232     3.2292    -1.7563 H            1    LIG   0.0000
  40 H            3.5738     2.9820    -0.0037 H            1    LIG   0.0000
  41 H            5.9661     3.1298    -0.0269 H            1    LIG   0.0000
  42 H            8.1735     0.2348    -0.0886 H            1    LIG   0.0000
  43 H            8.0821     1.6570    -0.8859 H            1    LIG   0.0000
  44 H            8.1000     1.6359     0.7469 H            1    LIG   0.0000
  45 H            6.2037    -1.0110    -0.0851 H            1    LIG   0.0000
  46 H            3.8113    -1.1588    -0.0598 H            1    LIG   0.0000
  47 H            1.7777    -1.2729    -0.0306 H            1    LIG   0.0000
  48 H           -4.7270    -3.4712     0.0133 H            1    LIG   0.0000
  49 H           -5.5338    -5.7614    -0.0005 H            1    LIG   0.0000
  50 H           -3.9707    -7.5437    -0.0350 H            1    LIG   0.0000
  51 H           -1.8662     1.4811     1.8331 H            1    LIG   0.0000
@<TRIPOS>BOND
   1        1        2 1
   2        2        3 1
   3        3        4 ar
   4        4        5 ar
   5        5        6 ar
   6        6        7 ar
   7        7        8 1
   8        8        9 2
   9        9       10 1
  10       10       11 1
  11       11       12 ar
  12       12       13 ar
  13       13       14 ar
  14       14       15 1
  15       14       16 ar
  16       16       17 ar
  17       17       11 ar
  18       10       18 1
  19       18       19 2
  20       19        8 1
  21       19       20 1
  22       20       21 2
  23       21       22 1
  24       22       23 1
  25       23       24 2
  26       24       25 1
  27       25       26 2
  28       26       27 1
  29       27       28 1
  30       28       23 1
  31       28       29 2
  32       22       30 2
  33       30       31 1
  34       31       20 1
  35        7       32 ar
  36       32        3 ar
  37       27       33 1
  38        1       34 1
  39        1       35 1
  40        1       36 1
  41        4       37 1
  42        5       38 1
  43        6       39 1
  44       12       40 1
  45       13       41 1
  46       15       42 1
  47       15       43 1
  48       15       44 1
  49       16       45 1
  50       17       46 1
  51       18       47 1
  52       24       48 1
  53       25       49 1
  54       26       50 1
  55       32       51 1

@<TRIPOS>MOLECULE

  51   55
SMALL
USER_CHARGES
@<TRIPOS>ATOM
   1 C1          -5.1889     3.6683     2.0468 C.3          1    LIG   0.0000
   2 O2          -4.0547     2.8172     2.1209 O.3          1    LIG   0.0000
   3 C3          -3.1784     2.9263     1.0997 C.ar         1    LIG   0.0000
   4 C4          -3.4296     3.8325     0.0744 C.ar         1    LIG   0.0000
   5 C5          -2.5200     3.9359    -0.9725 C.ar         1    LIG   0.0000
   6 C6          -1.3734     3.1493    -1.0008 C.ar         1    LIG   0.0000
   7 C7          -1.1422     2.2499     0.0349 C.ar         1    LIG   0.0000
   8 C8           0.0502     1.4251     0.0140 C.2          1    LIG   0.0000
   9 N9           1.2906     1.8483     0.0086 N.2          1    LIG   0.0000
  10 N10          2.1113     0.8202    -0.0137 N.pl3        1    LIG   0.0000
  11 C11          3.5090     0.9029    -0.0286 C.ar         1    LIG   0.0000
  12 C12          4.1273     2.1494    -0.0199 C.ar         1    LIG   0.0000
  13 C13          5.5152     2.2372    -0.0336 C.ar         1    LIG   0.0000
  14 C14          6.2683     1.0675    -0.0570 C.ar         1    LIG   0.0000
  15 C15          7.7858     1.1564    -0.0725 C.3          1    LIG   0.0000
  16 C16          5.6501    -0.1783    -0.0673 C.ar         1    LIG   0.0000
  17 C17          4.2621    -0.2663    -0.0528 C.ar         1    LIG   0.0000
  18 C18          1.4074    -0.3441    -0.0181 C.2          1    LIG   0.0000
  19 C19          0.0959     0.0164    -0.0018 C.2          1    LIG   0.0000
  20 C20         -1.0413    -0.8833     0.0003 C.2          1    LIG   0.0000
  21 N21         -1.3003    -1.7842     0.9148 N.2          1    LIG   0.0000
  22 C22         -2.4531    -2.3802     0.5040 C.2          1    LIG   0.0000
  23 C23         -3.1473    -3.4510     1.1933 C.2          1    LIG   0.0000
  24 C24         -2.6215    -3.9278     2.3662 C.2          1    LIG   0.0000
  25 C25         -3.2785    -4.9764     3.0648 C.2          1    LIG   0.0000
  26 C26         -4.4369    -5.4968     2.5482 C.2          1    LIG   0.0000
  27 N27         -4.9625    -5.0199     1.3753 N.pl3        1    LIG   0.0000
  28 C28         -4.3501    -4.0092     0.6805 C.2          1    LIG   0.0000
  29 O29         -4.8222    -3.5876    -0.3630 O.2          1    LIG   0.0000
  30 N30         -2.8262    -1.8222    -0.6174 N.2          1    LIG   0.0000
  31 O31         -1.9814    -0.9306    -0.9124 O.2          1    LIG   0.0000
  32 C32         -2.0385     2.1296     1.0916 C.ar         1    LIG   0.0000
  33 H           -5.8087    -5.4169     1.0198 H            1    LIG   0.0000
  34 H           -5.7739     3.5142     2.8430 H            1    LIG   0.0000
  35 H           -4.8894     4.6223     2.0328 H            1    LIG   0.0000
  36 H           -5.7021     3.4678     1.2122 H            1    LIG   0.0000
  37 H           -4.2521     4.4011     0.0901 H            1    LIG   0.0000
  38 H           -2.6926     4.5840    -1.7143 H            1    LIG   0.0000
  39 H           -0.7232     3.2292    -1.7563 H            1    LIG   0.0000
  40 H            3.5738     2.9820    -0.0037 H            1    LIG   0.0000
  41 H            5.9661     3.1298    -0.0269 H            1    LIG   0.0000
  42 H            8.1735     0.2348    -0.0886 H            1    LIG   0.0000
  43 H            8.0821     1.6570    -0.8859 H            1    LIG   0.0000
  44 H            8.1000     1.6359     0.7469 H            1    LIG   0.0000
  45 H            6.2037    -1.0110    -0.0851 H            1    LIG   0.0000
  46 H            3.8113    -1.1588    -0.0598 H            1    LIG   0.0000
  47 H            1.7777    -1.2729    -0.0306 H            1    LIG   0.0000
  48 H           -1.7757    -3.5378     2.7302 H            1    LIG   0.0000
  49 H           -2.9014    -5.3297     3.9209 H            1    LIG   0.0000
  50 H           -4.9052    -6.2348     3.0340 H            1    LIG   0.0000
  51 H           -1.8662     1.4811     1.8331 H            1    LIG   0.0000
@<TRIPOS>BOND
   1        1        2 1
   2        2        3 1
   3        3        4 ar
   4        4        5 ar
   5        5        6 ar
   6        6        7 ar
   7        7        8 1
   8        8        9 2
   9        9       10 1
  10       10       11 1
  11       11       12 ar
  12       12       13 ar
  13       13       14 ar
  14       14       15 1
  15       14       16 ar
  16       16       17 ar
  17       17       11 ar
  18       10       18 1
  19       18       19 2
  20       19        8 1
  21       19       20 1
  22       20       21 2
  23       21       22 1
  24       22       23 1
  25       23       24 2
  26       24       25 1
  27       25       26 2
  28       26       27 1
  29       27       28 1
  30       28       23 1
  31       28       29 2
  32       22       30 2
  33       30       31 1
  34       31       20 1
  35        7       32 ar
  36       32        3 ar
  37       27       33 1
  38        1       34 1
  39        1       35 1
  40        1       36 1
  41        4       37 1
  42        5       38 1
  43        6       39 1
  44       12       40 1
  45       13       41 1
  46       15       42 1
  47       15       43 1
  48       15       44 1
  49       16       45 1
  50       17       46 1
  51       18       47 1
  52       24       48 1
  53       25       49 1
  54       26       50 1
  55       32       51 1

@<TRIPOS>MOLECULE

  51   55
SMALL
USER_CHARGES
@<TRIPOS>ATOM
   1 C1          -5.1889     3.6683     2.0468 C.3          1    LIG   0.0000
   2 O2          -4.0547     2.8172     2.1209 O.3          1    LIG   0.0000
   3 C3          -3.1784     2.9263     1.0997 C.ar         1    LIG   0.0000
   4 C4          -3.4296     3.8325     0.0744 C.ar         1    LIG   0.0000
   5 C5          -2.5200     3.9359    -0.9725 C.ar         1    LIG   0.0000
   6 C6          -1.3734     3.1493    -1.0008 C.ar         1    LIG   0.0000
   7 C7          -1.1422     2.2499     0.0349 C.ar         1    LIG   0.0000
   8 C8           0.0502     1.4251     0.0140 C.2          1    LIG   0.0000
   9 N9           1.2906     1.8483     0.0086 N.2          1    LIG   0.0000
  10 N10          2.1113     0.8202    -0.0137 N.pl3        1    LIG   0.0000
  11 C11          3.5090     0.9029    -0.0286 C.ar         1    LIG   0.0000
  12 C12          4.1273     2.1494    -0.0199 C.ar         1    LIG   0.0000
  13 C13          5.5152     2.2372    -0.0336 C.ar         1    LIG   0.0000
  14 C14          6.2683     1.0675    -0.0570 C.ar         1    LIG   0.0000
  15 C15          7.7858     1.1564    -0.0725 C.3          1    LIG   0.0000
  16 C16          5.6501    -0.1783    -0.0673 C.ar         1    LIG   0.0000
  17 C17          4.2621    -0.2663    -0.0528 C.ar         1    LIG   0.0000
  18 C18          1.4074    -0.3441    -0.0181 C.2          1    LIG   0.0000
  19 C19          0.0959     0.0164    -0.0018 C.2          1    LIG   0.0000
  20 C20         -1.0413    -0.8833     0.0003 C.2          1    LIG   0.0000
  21 N21         -1.3003    -1.7842     0.9148 N.2          1    LIG   0.0000
  22 C22         -2.4531    -2.3802     0.5040 C.2          1    LIG   0.0000
  23 C23         -3.1473    -3.4510     1.1933 C.2          1    LIG   0.0000
  24 C24         -4.3028    -3.9454     0.6456 C.2          1    LIG   0.0000
  25 C25         -5.0057    -4.9944     1.2973 C.2          1    LIG   0.0000
  26 C26         -4.5109    -5.4975     2.4726 C.2          1    LIG   0.0000
  27 N27         -3.3555    -5.0029     3.0203 N.pl3        1    LIG   0.0000
  28 C28         -2.6568    -3.9915     2.4133 C.2          1    LIG   0.0000
  29 O29         -1.6283    -3.5549     2.9045 O.2          1    LIG   0.0000
  30 N30         -2.8262    -1.8222    -0.6174 N.2          1    LIG   0.0000
  31 O31         -1.9814    -0.9306    -0.9124 O.2          1    LIG   0.0000
  32 C32         -2.0385     2.1296     1.0916 C.ar         1    LIG   0.0000
  33 H           -3.0159    -5.3872     3.8787 H            1    LIG   0.0000
  34 H           -5.7739     3.5142     2.8430 H            1    LIG   0.0000
  35 H           -4.8894     4.6223     2.0328 H            1    LIG   0.0000
  36 H           -5.7021     3.4678     1.2122 H            1    LIG   0.0000
  37 H           -4.2521     4.4011     0.0901 H            1    LIG   0.0000
  38 H           -2.6926     4.5840    -1.7143 H            1    LIG   0.0000
  39 H           -0.7232     3.2292    -1.7563 H            1    LIG   0.0000
  40 H            3.5738     2.9820    -0.0037 H            1    LIG   0.0000
  41 H            5.9661     3.1298    -0.0269 H            1    LIG   0.0000
  42 H            8.1735     0.2348    -0.0886 H            1    LIG   0.0000
  43 H            8.0821     1.6570    -0.8859 H            1    LIG   0.0000
  44 H            8.1000     1.6359     0.7469 H            1    LIG   0.0000
  45 H            6.2037    -1.0110    -0.0851 H            1    LIG   0.0000
  46 H            3.8113    -1.1588    -0.0598 H            1    LIG   0.0000
  47 H            1.7777    -1.2729    -0.0306 H            1    LIG   0.0000
  48 H           -4.6509    -3.5679    -0.2125 H            1    LIG   0.0000
  49 H           -5.8493    -5.3605     0.9042 H            1    LIG   0.0000
  50 H           -4.9998    -6.2358     2.9373 H            1    LIG   0.0000
  51 H           -1.8662     1.4811     1.8331 H            1    LIG   0.0000
@<TRIPOS>BOND
   1        1        2 1
   2        2        3 1
   3        3        4 ar
   4        4        5 ar
   5        5        6 ar
   6        6        7 ar
   7        7        8 1
   8        8        9 2
   9        9       10 1
  10       10       11 1
  11       11       12 ar
  12       12       13 ar
  13       13       14 ar
  14       14       15 1
  15       14       16 ar
  16       16       17 ar
  17       17       11 ar
  18       10       18 1
  19       18       19 2
  20       19        8 1
  21       19       20 1
  22       20       21 2
  23       21       22 1
  24       22       23 1
  25       23       24 2
  26       24       25 1
  27       25       26 2
  28       26       27 1
  29       27       28 1
  30       28       23 1
  31       28       29 2
  32       22       30 2
  33       30       31 1
  34       31       20 1
  35        7       32 ar
  36       32        3 ar
  37       27       33 1
  38        1       34 1
  39        1       35 1
  40        1       36 1
  41        4       37 1
  42        5       38 1
  43        6       39 1
  44       12       40 1
  45       13       41 1
  46       15       42 1
  47       15       43 1
  48       15       44 1
  49       16       45 1
  50       17       46 1
  51       18       47 1
  52       24       48 1
  53       25       49 1
  54       26       50 1
  55       32       51 1

@<TRIPOS>MOLECULE

  51   55
SMALL
USER_CHARGES
@<TRIPOS>ATOM
   1 C1          -3.3510     6.3550     0.8746 C.3          1    LIG   0.0000
   2 O2          -2.1279     5.6338     0.8916 O.3          1    LIG   0.0000
   3 C3          -2.2039     4.3508     0.4783 C.ar         1    LIG   0.0000
   4 C4          -3.4301     3.8318     0.0752 C.ar         1    LIG   0.0000
   5 C5          -3.4963     2.5087    -0.3483 C.ar         1    LIG   0.0000
   6 C6          -2.3578     1.7102    -0.3723 C.ar         1    LIG   0.0000
   7 C7          -1.1422     2.2499     0.0349 C.ar         1    LIG   0.0000
   8 C8           0.0502     1.4251     0.0140 C.2          1    LIG   0.0000
   9 N9           1.2906     1.8483     0.0086 N.2          1    LIG   0.0000
  10 N10          2.1113     0.8202    -0.0137 N.pl3        1    LIG   0.0000
  11 C11          3.5090     0.9029    -0.0286 C.ar         1    LIG   0.0000
  12 C12          4.1273     2.1494    -0.0199 C.ar         1    LIG   0.0000
  13 C13          5.5152     2.2372    -0.0336 C.ar         1    LIG   0.0000
  14 C14          6.2683     1.0675    -0.0570 C.ar         1    LIG   0.0000
  15 C15          7.7858     1.1564    -0.0725 C.3          1    LIG   0.0000
  16 C16          5.6501    -0.1783    -0.0673 C.ar         1    LIG   0.0000
  17 C17          4.2621    -0.2663    -0.0528 C.ar         1    LIG   0.0000
  18 C18          1.4074    -0.3441    -0.0181 C.2          1    LIG   0.0000
  19 C19          0.0959     0.0164    -0.0018 C.2          1    LIG   0.0000
  20 C20         -1.0413    -0.8833     0.0003 C.2          1    LIG   0.0000
  21 N21         -1.3197    -1.7640    -0.9279 N.2          1    LIG   0.0000
  22 C22         -2.4627    -2.3704    -0.5052 C.2          1    LIG   0.0000
  23 C23         -3.1698    -3.4282    -1.2014 C.2          1    LIG   0.0000
  24 C24         -2.6681    -3.8803    -2.3945 C.2          1    LIG   0.0000
  25 C25         -3.3383    -4.9156    -3.1004 C.2          1    LIG   0.0000
  26 C26         -4.4850    -5.4482    -2.5704 C.2          1    LIG   0.0000
  27 N27         -4.9867    -4.9960    -1.3774 N.pl3        1    LIG   0.0000
  28 C28         -4.3609    -3.9987    -0.6750 C.2          1    LIG   0.0000
  29 O29         -4.8111    -3.5999     0.3870 O.2          1    LIG   0.0000
  30 N30         -2.8130    -1.8359     0.6349 N.2          1    LIG   0.0000
  31 O31         -1.9620    -0.9507     0.9313 O.2          1    LIG   0.0000
  32 C32         -1.0529     3.5704     0.4627 C.ar         1    LIG   0.0000
  33 H           -5.8249    -5.4012    -1.0127 H            1    LIG   0.0000
  34 H           -3.1920     7.2885     1.1958 H            1    LIG   0.0000
  35 H           -3.7103     6.3800    -0.0583 H            1    LIG   0.0000
  36 H           -4.0121     5.9042     1.4744 H            1    LIG   0.0000
  37 H           -4.2518     4.4016     0.0897 H            1    LIG   0.0000
  38 H           -4.3735     2.1267    -0.6391 H            1    LIG   0.0000
  39 H           -2.4124     0.7599    -0.6786 H            1    LIG   0.0000
  40 H            3.5738     2.9820    -0.0037 H            1    LIG   0.0000
  41 H            5.9661     3.1298    -0.0269 H            1    LIG   0.0000
  42 H            8.1735     0.2348    -0.0886 H            1    LIG   0.0000
  43 H            8.0821     1.6570    -0.8859 H            1    LIG   0.0000
  44 H            8.1000     1.6359     0.7469 H            1    LIG   0.0000
  45 H            6.2037    -1.0110    -0.0851 H            1    LIG   0.0000
  46 H            3.8113    -1.1588    -0.0598 H            1    LIG   0.0000
  47 H            1.7777    -1.2729    -0.0306 H            1    LIG   0.0000
  48 H           -1.8305    -3.4816    -2.7680 H            1    LIG   0.0000
  49 H           -2.9787    -5.2508    -3.9712 H            1    LIG   0.0000
  50 H           -4.9624    -6.1771    -3.0611 H            1    LIG   0.0000
  51 H           -0.1758     3.9522     0.7541 H            1    LIG   0.0000
@<TRIPOS>BOND
   1        1        2 1
   2        2        3 1
   3        3        4 ar
   4        4        5 ar
   5        5        6 ar
   6        6        7 ar
   7        7        8 1
   8        8        9 2
   9        9       10 1
  10       10       11 1
  11       11       12 ar
  12       12       13 ar
  13       13       14 ar
  14       14       15 1
  15       14       16 ar
  16       16       17 ar
  17       17       11 ar
  18       10       18 1
  19       18       19 2
  20       19        8 1
  21       19       20 1
  22       20       21 2
  23       21       22 1
  24       22       23 1
  25       23       24 2
  26       24       25 1
  27       25       26 2
  28       26       27 1
  29       27       28 1
  30       28       23 1
  31       28       29 2
  32       22       30 2
  33       30       31 1
  34       31       20 1
  35        7       32 ar
  36       32        3 ar
  37       27       33 1
  38        1       34 1
  39        1       35 1
  40        1       36 1
  41        4       37 1
  42        5       38 1
  43        6       39 1
  44       12       40 1
  45       13       41 1
  46       15       42 1
  47       15       43 1
  48       15       44 1
  49       16       45 1
  50       17       46 1
  51       18       47 1
  52       24       48 1
  53       25       49 1
  54       26       50 1
  55       32       51 1

@<TRIPOS>MOLECULE

  51   55
SMALL
USER_CHARGES
@<TRIPOS>ATOM
   1 C1          -3.3510     6.3550     0.8746 C.3          1    LIG   0.0000
   2 O2          -2.1279     5.6338     0.8916 O.3          1    LIG   0.0000
   3 C3          -2.2039     4.3508     0.4783 C.ar         1    LIG   0.0000
   4 C4          -3.4301     3.8318     0.0752 C.ar         1    LIG   0.0000
   5 C5          -3.4963     2.5087    -0.3483 C.ar         1    LIG   0.0000
   6 C6          -2.3578     1.7102    -0.3723 C.ar         1    LIG   0.0000
   7 C7          -1.1422     2.2499     0.0349 C.ar         1    LIG   0.0000
   8 C8           0.0502     1.4251     0.0140 C.2          1    LIG   0.0000
   9 N9           1.2906     1.8483     0.0086 N.2          1    LIG   0.0000
  10 N10          2.1113     0.8202    -0.0137 N.pl3        1    LIG   0.0000
  11 C11          3.5090     0.9029    -0.0286 C.ar         1    LIG   0.0000
  12 C12          4.1273     2.1494    -0.0199 C.ar         1    LIG   0.0000
  13 C13          5.5152     2.2372    -0.0336 C.ar         1    LIG   0.0000
  14 C14          6.2683     1.0675    -0.0570 C.ar         1    LIG   0.0000
  15 C15          7.7858     1.1564    -0.0725 C.3          1    LIG   0.0000
  16 C16          5.6501    -0.1783    -0.0673 C.ar         1    LIG   0.0000
  17 C17          4.2621    -0.2663    -0.0528 C.ar         1    LIG   0.0000
  18 C18          1.4074    -0.3441    -0.0181 C.2          1    LIG   0.0000
  19 C19          0.0959     0.0164    -0.0018 C.2          1    LIG   0.0000
  20 C20         -1.0413    -0.8833     0.0003 C.2          1    LIG   0.0000
  21 N21         -1.3197    -1.7640    -0.9279 N.2          1    LIG   0.0000
  22 C22         -2.4627    -2.3704    -0.5052 C.2          1    LIG   0.0000
  23 C23         -3.1698    -3.4282    -1.2014 C.2          1    LIG   0.0000
  24 C24         -4.3130    -3.9356    -0.6399 C.2          1    LIG   0.0000
  25 C25         -5.0281    -4.9724    -1.2978 C.2          1    LIG   0.0000
  26 C26         -4.5572    -5.4507    -2.4932 C.2          1    LIG   0.0000
  27 N27         -3.4141    -4.9434    -3.0546 N.pl3        1    LIG   0.0000
  28 C28         -2.7044    -3.9430    -2.4422 C.2          1    LIG   0.0000
  29 O29         -1.6875    -3.4942    -2.9462 O.2          1    LIG   0.0000
  30 N30         -2.8130    -1.8359     0.6349 N.2          1    LIG   0.0000
  31 O31         -1.9620    -0.9507     0.9313 O.2          1    LIG   0.0000
  32 C32         -1.0529     3.5704     0.4627 C.ar         1    LIG   0.0000
  33 H           -3.0918    -5.3099    -3.9274 H            1    LIG   0.0000
  34 H           -3.1920     7.2885     1.1958 H            1    LIG   0.0000
  35 H           -3.7103     6.3800    -0.0583 H            1    LIG   0.0000
  36 H           -4.0121     5.9042     1.4744 H            1    LIG   0.0000
  37 H           -4.2518     4.4016     0.0897 H            1    LIG   0.0000
  38 H           -4.3735     2.1267    -0.6391 H            1    LIG   0.0000
  39 H           -2.4124     0.7599    -0.6786 H            1    LIG   0.0000
  40 H            3.5738     2.9820    -0.0037 H            1    LIG   0.0000
  41 H            5.9661     3.1298    -0.0269 H            1    LIG   0.0000
  42 H            8.1735     0.2348    -0.0886 H            1    LIG   0.0000
  43 H            8.0821     1.6570    -0.8859 H            1    LIG   0.0000
  44 H            8.1000     1.6359     0.7469 H            1    LIG   0.0000
  45 H            6.2037    -1.0110    -0.0851 H            1    LIG   0.0000
  46 H            3.8113    -1.1588    -0.0598 H            1    LIG   0.0000
  47 H            1.7777    -1.2729    -0.0306 H            1    LIG   0.0000
  48 H           -4.6437    -3.5760     0.2327 H            1    LIG   0.0000
  49 H           -5.8627    -5.3478    -0.8947 H            1    LIG   0.0000
  50 H           -5.0549    -6.1802    -2.9624 H            1    LIG   0.0000
  51 H           -0.1758     3.9522     0.7541 H            1    LIG   0.0000
@<TRIPOS>BOND
   1        1        2 1
   2        2        3 1
   3        3        4 ar
   4        4        5 ar
   5        5        6 ar
   6        6        7 ar
   7        7        8 1
   8        8        9 2
   9        9       10 1
  10       10       11 1
  11       11       12 ar
  12       12       13 ar
  13       13       14 ar
  14       14       15 1
  15       14       16 ar
  16       16       17 ar
  17       17       11 ar
  18       10       18 1
  19       18       19 2
  20       19        8 1
  21       19       20 1
  22       20       21 2
  23       21       22 1
  24       22       23 1
  25       23       24 2
  26       24       25 1
  27       25       26 2
  28       26       27 1
  29       27       28 1
  30       28       23 1
  31       28       29 2
  32       22       30 2
  33       30       31 1
  34       31       20 1
  35        7       32 ar
  36       32        3 ar
  37       27       33 1
  38        1       34 1
  39        1       35 1
  40        1       36 1
  41        4       37 1
  42        5       38 1
  43        6       39 1
  44       12       40 1
  45       13       41 1
  46       15       42 1
  47       15       43 1
  48       15       44 1
  49       16       45 1
  50       17       46 1
  51       18       47 1
  52       24       48 1
  53       25       49 1
  54       26       50 1
  55       32       51 1

@<TRIPOS>MOLECULE

  51   55
SMALL
USER_CHARGES
@<TRIPOS>ATOM
   1 C1          -3.3664     6.3720    -0.6699 C.3          1    LIG   0.0000
   2 O2          -2.1442     5.6514    -0.7277 O.3          1    LIG   0.0000
   3 C3          -2.2121     4.3599    -0.3406 C.ar         1    LIG   0.0000
   4 C4          -3.4300     3.8319     0.0757 C.ar         1    LIG   0.0000
   5 C5          -3.4878     2.5002     0.4724 C.ar         1    LIG   0.0000
   6 C6          -2.3494     1.7013     0.4551 C.ar         1    LIG   0.0000
   7 C7          -1.1422     2.2499     0.0349 C.ar         1    LIG   0.0000
   8 C8           0.0502     1.4251     0.0140 C.2          1    LIG   0.0000
   9 N9           1.2906     1.8483     0.0086 N.2          1    LIG   0.0000
  10 N10          2.1113     0.8202    -0.0137 N.pl3        1    LIG   0.0000
  11 C11          3.5090     0.9029    -0.0286 C.ar         1    LIG   0.0000
  12 C12          4.1273     2.1494    -0.0199 C.ar         1    LIG   0.0000
  13 C13          5.5152     2.2372    -0.0336 C.ar         1    LIG   0.0000
  14 C14          6.2683     1.0675    -0.0570 C.ar         1    LIG   0.0000
  15 C15          7.7858     1.1564    -0.0725 C.3          1    LIG   0.0000
  16 C16          5.6501    -0.1783    -0.0673 C.ar         1    LIG   0.0000
  17 C17          4.2621    -0.2663    -0.0528 C.ar         1    LIG   0.0000
  18 C18          1.4074    -0.3441    -0.0181 C.2          1    LIG   0.0000
  19 C19          0.0959     0.0164    -0.0018 C.2          1    LIG   0.0000
  20 C20         -1.0413    -0.8833     0.0003 C.2          1    LIG   0.0000
  21 N21         -1.3003    -1.7842     0.9148 N.2          1    LIG   0.0000
  22 C22         -2.4531    -2.3802     0.5040 C.2          1    LIG   0.0000
  23 C23         -3.1473    -3.4510     1.1933 C.2          1    LIG   0.0000
  24 C24         -2.6215    -3.9278     2.3662 C.2          1    LIG   0.0000
  25 C25         -3.2785    -4.9764     3.0648 C.2          1    LIG   0.0000
  26 C26         -4.4369    -5.4968     2.5482 C.2          1    LIG   0.0000
  27 N27         -4.9625    -5.0199     1.3753 N.pl3        1    LIG   0.0000
  28 C28         -4.3501    -4.0092     0.6805 C.2          1    LIG   0.0000
  29 O29         -4.8222    -3.5876    -0.3630 O.2          1    LIG   0.0000
  30 N30         -2.8262    -1.8222    -0.6174 N.2          1    LIG   0.0000
  31 O31         -1.9814    -0.9306    -0.9124 O.2          1    LIG   0.0000
  32 C32         -1.0612     3.5794    -0.3657 C.ar         1    LIG   0.0000
  33 H           -5.8087    -5.4169     1.0198 H            1    LIG   0.0000
  34 H           -3.2137     7.3123    -0.9741 H            1    LIG   0.0000
  35 H           -4.0400     5.9342    -1.2654 H            1    LIG   0.0000
  36 H           -3.7063     6.3770     0.2706 H            1    LIG   0.0000
  37 H           -4.2518     4.4015     0.0894 H            1    LIG   0.0000
  38 H           -4.3587     2.1122     0.7740 H            1    LIG   0.0000
  39 H           -2.3982     0.7443     0.7410 H            1    LIG   0.0000
  40 H            3.5738     2.9820    -0.0037 H            1    LIG   0.0000
  41 H            5.9661     3.1298    -0.0269 H            1    LIG   0.0000
  42 H            8.1735     0.2348    -0.0886 H            1    LIG   0.0000
  43 H            8.0821     1.6570    -0.8859 H            1    LIG   0.0000
  44 H            8.1000     1.6359     0.7469 H            1    LIG   0.0000
  45 H            6.2037    -1.0110    -0.0851 H            1    LIG   0.0000
  46 H            3.8113    -1.1588    -0.0598 H            1    LIG   0.0000
  47 H            1.7777    -1.2729    -0.0306 H            1    LIG   0.0000
  48 H           -1.7757    -3.5378     2.7302 H            1    LIG   0.0000
  49 H           -2.9014    -5.3297     3.9209 H            1    LIG   0.0000
  50 H           -4.9052    -6.2348     3.0340 H            1    LIG   0.0000
  51 H           -0.1902     3.9675    -0.6667 H            1    LIG   0.0000
@<TRIPOS>BOND
   1        1        2 1
   2        2        3 1
   3        3        4 ar
   4        4        5 ar
   5        5        6 ar
   6        6        7 ar
   7        7        8 1
   8        8        9 2
   9        9       10 1
  10       10       11 1
  11       11       12 ar
  12       12       13 ar
  13       13       14 ar
  14       14       15 1
  15       14       16 ar
  16       16       17 ar
  17       17       11 ar
  18       10       18 1
  19       18       19 2
  20       19        8 1
  21       19       20 1
  22       20       21 2
  23       21       22 1
  24       22       23 1
  25       23       24 2
  26       24       25 1
  27       25       26 2
  28       26       27 1
  29       27       28 1
  30       28       23 1
  31       28       29 2
  32       22       30 2
  33       30       31 1
  34       31       20 1
  35        7       32 ar
  36       32        3 ar
  37       27       33 1
  38        1       34 1
  39        1       35 1
  40        1       36 1
  41        4       37 1
  42        5       38 1
  43        6       39 1
  44       12       40 1
  45       13       41 1
  46       15       42 1
  47       15       43 1
  48       15       44 1
  49       16       45 1
  50       17       46 1
  51       18       47 1
  52       24       48 1
  53       25       49 1
  54       26       50 1
  55       32       51 1

@<TRIPOS>MOLECULE

  51   55
SMALL
USER_CHARGES
@<TRIPOS>ATOM
   1 C1          -3.3664     6.3720    -0.6699 C.3          1    LIG   0.0000
   2 O2          -2.1442     5.6514    -0.7277 O.3          1    LIG   0.0000
   3 C3          -2.2121     4.3599    -0.3406 C.ar         1    LIG   0.0000
   4 C4          -3.4300     3.8319     0.0757 C.ar         1    LIG   0.0000
   5 C5          -3.4878     2.5002     0.4724 C.ar         1    LIG   0.0000
   6 C6          -2.3494     1.7013     0.4551 C.ar         1    LIG   0.0000
   7 C7          -1.1422     2.2499     0.0349 C.ar         1    LIG   0.0000
   8 C8           0.0502     1.4251     0.0140 C.2          1    LIG   0.0000
   9 N9           1.2906     1.8483     0.0086 N.2          1    LIG   0.0000
  10 N10          2.1113     0.8202    -0.0137 N.pl3        1    LIG   0.0000
  11 C11          3.5090     0.9029    -0.0286 C.ar         1    LIG   0.0000
  12 C12          4.1273     2.1494    -0.0199 C.ar         1    LIG   0.0000
  13 C13          5.5152     2.2372    -0.0336 C.ar         1    LIG   0.0000
  14 C14          6.2683     1.0675    -0.0570 C.ar         1    LIG   0.0000
  15 C15          7.7858     1.1564    -0.0725 C.3          1    LIG   0.0000
  16 C16          5.6501    -0.1783    -0.0673 C.ar         1    LIG   0.0000
  17 C17          4.2621    -0.2663    -0.0528 C.ar         1    LIG   0.0000
  18 C18          1.4074    -0.3441    -0.0181 C.2          1    LIG   0.0000
  19 C19          0.0959     0.0164    -0.0018 C.2          1    LIG   0.0000
  20 C20         -1.0413    -0.8833     0.0003 C.2          1    LIG   0.0000
  21 N21         -1.3003    -1.7842     0.9148 N.2          1    LIG   0.0000
  22 C22         -2.4531    -2.3802     0.5040 C.2          1    LIG   0.0000
  23 C23         -3.1473    -3.4510     1.1933 C.2          1    LIG   0.0000
  24 C24         -4.3028    -3.9454     0.6456 C.2          1    LIG   0.0000
  25 C25         -5.0057    -4.9944     1.2973 C.2          1    LIG   0.0000
  26 C26         -4.5109    -5.4975     2.4726 C.2          1    LIG   0.0000
  27 N27         -3.3555    -5.0029     3.0203 N.pl3        1    LIG   0.0000
  28 C28         -2.6568    -3.9915     2.4133 C.2          1    LIG   0.0000
  29 O29         -1.6283    -3.5549     2.9045 O.2          1    LIG   0.0000
  30 N30         -2.8262    -1.8222    -0.6174 N.2          1    LIG   0.0000
  31 O31         -1.9814    -0.9306    -0.9124 O.2          1    LIG   0.0000
  32 C32         -1.0612     3.5794    -0.3657 C.ar         1    LIG   0.0000
  33 H           -3.0159    -5.3872     3.8787 H            1    LIG   0.0000
  34 H           -3.2137     7.3123    -0.9741 H            1    LIG   0.0000
  35 H           -4.0400     5.9342    -1.2654 H            1    LIG   0.0000
  36 H           -3.7063     6.3770     0.2706 H            1    LIG   0.0000
  37 H           -4.2518     4.4015     0.0894 H            1    LIG   0.0000
  38 H           -4.3587     2.1122     0.7740 H            1    LIG   0.0000
  39 H           -2.3982     0.7443     0.7410 H            1    LIG   0.0000
  40 H            3.5738     2.9820    -0.0037 H            1    LIG   0.0000
  41 H            5.9661     3.1298    -0.0269 H            1    LIG   0.0000
  42 H            8.1735     0.2348    -0.0886 H            1    LIG   0.0000
  43 H            8.0821     1.6570    -0.8859 H            1    LIG   0.0000
  44 H            8.1000     1.6359     0.7469 H            1    LIG   0.0000
  45 H            6.2037    -1.0110    -0.0851 H            1    LIG   0.0000
  46 H            3.8113    -1.1588    -0.0598 H            1    LIG   0.0000
  47 H            1.7777    -1.2729    -0.0306 H            1    LIG   0.0000
  48 H           -4.6509    -3.5679    -0.2125 H            1    LIG   0.0000
  49 H           -5.8493    -5.3605     0.9042 H            1    LIG   0.0000
  50 H           -4.9998    -6.2358     2.9373 H            1    LIG   0.0000
  51 H           -0.1902     3.9675    -0.6667 H            1    LIG   0.0000
@<TRIPOS>BOND
   1        1        2 1
   2        2        3 1
   3        3        4 ar
   4        4        5 ar
   5        5        6 ar
   6        6        7 ar
   7        7        8 1
   8        8        9 2
   9        9       10 1
  10       10       11 1
  11       11       12 ar
  12       12       13 ar
  13       13       14 ar
  14       14       15 1
  15       14       16 ar
  16       16       17 ar
  17       17       11 ar
  18       10       18 1
  19       18       19 2
  20       19        8 1
  21       19       20 1
  22       20       21 2
  23       21       22 1
  24       22       23 1
  25       23       24 2
  26       24       25 1
  27       25       26 2
  28       26       27 1
  29       27       28 1
  30       28       23 1
  31       28       29 2
  32       22       30 2
  33       30       31 1
  34       31       20 1
  35        7       32 ar
  36       32        3 ar
  37       27       33 1
  38        1       34 1
  39        1       35 1
  40        1       36 1
  41        4       37 1
  42        5       38 1
  43        6       39 1
  44       12       40 1
  45       13       41 1
  46       15       42 1
  47       15       43 1
  48       15       44 1
  49       16       45 1
  50       17       46 1
  51       18       47 1
  52       24       48 1
  53       25       49 1
  54       26       50 1
  55       32       51 1

