@<TRIPOS>MOLECULE
*****
 51 55 0 0 0
SMALL
USER_CHARGES

@<TRIPOS>ATOM
      1 C1         -3.3664    6.3720   -0.6699 C.3     1  LIG1        0.0000
      2 O2         -2.1442    5.6514   -0.7277 O.2     1  LIG1        0.0000
      3 C3         -2.2121    4.3599   -0.3406 C.3     1  LIG1        0.0000
      4 C4         -3.4300    3.8319    0.0757 C.3     1  LIG1        0.0000
      5 C5         -3.4878    2.5002    0.4724 C.3     1  LIG1        0.0000
      6 C6         -2.3494    1.7013    0.4551 C.3     1  LIG1        0.0000
      7 C7         -1.1422    2.2499    0.0349 C.3     1  LIG1        0.0000
      8 C8          0.0502    1.4251    0.0140 C.2     1  LIG1        0.0000
      9 N9          1.2906    1.8483    0.0086 N.2     1  LIG1        0.0000
     10 N10         2.1113    0.8202   -0.0137 N.pl3   1  LIG1        0.0000
     11 C11         3.5090    0.9029   -0.0286 C.3     1  LIG1        0.0000
     12 C12         4.1273    2.1494   -0.0199 C.3     1  LIG1        0.0000
     13 C13         5.5152    2.2372   -0.0336 C.3     1  LIG1        0.0000
     14 C14         6.2683    1.0675   -0.0570 C.3     1  LIG1        0.0000
     15 C15         7.7858    1.1564   -0.0725 C.3     1  LIG1        0.0000
     16 C16         5.6501   -0.1783   -0.0673 C.3     1  LIG1        0.0000
     17 C17         4.2621   -0.2663   -0.0528 C.3     1  LIG1        0.0000
     18 C18         1.4074   -0.3441   -0.0181 C.2     1  LIG1        0.0000
     19 C19         0.0959    0.0164   -0.0018 C.2     1  LIG1        0.0000
     20 C20        -1.0413   -0.8833    0.0003 C.2     1  LIG1        0.0000
     21 N21        -1.3003   -1.7842    0.9148 N.2     1  LIG1        0.0000
     22 C22        -2.4531   -2.3802    0.5040 C.2     1  LIG1        0.0000
     23 C23        -3.1473   -3.4510    1.1933 C.2     1  LIG1        0.0000
     24 C24        -4.3028   -3.9454    0.6456 C.2     1  LIG1        0.0000
     25 C25        -5.0057   -4.9944    1.2973 C.2     1  LIG1        0.0000
     26 C26        -4.5109   -5.4975    2.4726 C.2     1  LIG1        0.0000
     27 N27        -3.3555   -5.0029    3.0203 N.am    1  LIG1        0.0000
     28 C28        -2.6568   -3.9915    2.4133 C.2     1  LIG1        0.0000
     29 O29        -1.6283   -3.5549    2.9045 O.2     1  LIG1        0.0000
     30 N30        -2.8262   -1.8222   -0.6174 N.2     1  LIG1        0.0000
     31 O31        -1.9814   -0.9306   -0.9124 O.2     1  LIG1        0.0000
     32 C32        -1.0612    3.5794   -0.3657 C.3     1  LIG1        0.0000
     33 H          -3.0159   -5.3872    3.8787 H       1  LIG1        0.0000
     34 H          -3.2137    7.3123   -0.9741 H       1  LIG1        0.0000
     35 H          -4.0400    5.9342   -1.2654 H       1  LIG1        0.0000
     36 H          -3.7063    6.3770    0.2706 H       1  LIG1        0.0000
     37 H          -4.2518    4.4015    0.0894 H       1  LIG1        0.0000
     38 H          -4.3587    2.1122    0.7740 H       1  LIG1        0.0000
     39 H          -2.3982    0.7443    0.7410 H       1  LIG1        0.0000
     40 H           3.5738    2.9820   -0.0037 H       1  LIG1        0.0000
     41 H           5.9661    3.1298   -0.0269 H       1  LIG1        0.0000
     42 H           8.1735    0.2348   -0.0886 H       1  LIG1        0.0000
     43 H           8.0821    1.6570   -0.8859 H       1  LIG1        0.0000
     44 H           8.1000    1.6359    0.7469 H       1  LIG1        0.0000
     45 H           6.2037   -1.0110   -0.0851 H       1  LIG1        0.0000
     46 H           3.8113   -1.1588   -0.0598 H       1  LIG1        0.0000
     47 H           1.7777   -1.2729   -0.0306 H       1  LIG1        0.0000
     48 H          -4.6509   -3.5679   -0.2125 H       1  LIG1        0.0000
     49 H          -5.8493   -5.3605    0.9042 H       1  LIG1        0.0000
     50 H          -4.9998   -6.2358    2.9373 H       1  LIG1        0.0000
     51 H          -0.1902    3.9675   -0.6667 H       1  LIG1        0.0000
@<TRIPOS>BOND
     1     1     2    1
     2     2     3    1
     3     3     4   ar
     4     4     5   ar
     5     5     6   ar
     6     6     7   ar
     7     7     8    1
     8     8     9    2
     9     9    10    1
    10    10    11    1
    11    11    12   ar
    12    12    13   ar
    13    13    14   ar
    14    14    15    1
    15    14    16   ar
    16    16    17   ar
    17    17    11   ar
    18    10    18    1
    19    18    19    2
    20    19     8    1
    21    19    20    1
    22    20    21    2
    23    21    22    1
    24    22    23    1
    25    23    24    2
    26    24    25    1
    27    25    26    2
    28    26    27    1
    29    27    28   am
    30    28    23    1
    31    28    29    2
    32    22    30    2
    33    30    31    1
    34    31    20    1
    35     7    32   ar
    36    32     3   ar
    37    27    33    1
    38     1    34    1
    39     1    35    1
    40     1    36    1
    41     4    37    1
    42     5    38    1
    43     6    39    1
    44    12    40    1
    45    13    41    1
    46    15    42    1
    47    15    43    1
    48    15    44    1
    49    16    45    1
    50    17    46    1
    51    18    47    1
    52    24    48    1
    53    25    49    1
    54    26    50    1
    55    32    51    1
