@<TRIPOS>MOLECULE

  33   35
SMALL
USER_CHARGES
@<TRIPOS>ATOM
   1 C1          -1.4970     2.1395     0.0107 C.3          1    LIG   0.0000
   2 C2          -0.1681     1.4029    -0.0057 C.2          1    LIG   0.0000
   3 C3           0.0164     0.0531    -0.0256 C.2          1    LIG   0.0000
   4 C4           1.3746    -0.3629    -0.0367 C.2          1    LIG   0.0000
   5 C5           1.8055    -1.7434    -0.0585 C.ar         1    LIG   0.0000
   6 C6           1.2652    -2.6196    -0.9949 C.ar         1    LIG   0.0000
   7 C7           1.6858    -3.9460    -1.0159 C.ar         1    LIG   0.0000
   8 C8           2.6351    -4.3959    -0.1043 C.ar         1    LIG   0.0000
   9 C9           3.1559    -3.5065     0.8286 C.ar         1    LIG   0.0000
  10 C10          2.7549    -2.1759     0.8599 C.ar         1    LIG   0.0000
  11 C11          4.1672    -4.0009     1.8494 C.3          1    LIG   0.0000
  12 C12          4.8102    -5.3030     1.3896 C.3          1    LIG   0.0000
  13 O13          3.7885    -6.2233     1.0330 O.3          1    LIG   0.0000
  14 C14          3.1178    -5.8342    -0.1548 C.3          1    LIG   0.0000
  15 C15          2.2745     0.6603    -0.0247 C.2          1    LIG   0.0000
  16 C16          3.7904     0.5547    -0.0421 C.3          1    LIG   0.0000
  17 S17          1.3791     2.1079    -0.0048 S.3          1    LIG   0.0000
  18 H           -2.2457     1.4766     0.0061 H            1    LIG   0.0000
  19 H           -1.5557     2.7029     0.8348 H            1    LIG   0.0000
  20 H           -1.5642     2.7238    -0.7981 H            1    LIG   0.0000
  21 H           -0.7454    -0.5947    -0.0318 H            1    LIG   0.0000
  22 H            0.5796    -2.2984    -1.6481 H            1    LIG   0.0000
  23 H            1.3037    -4.5786    -1.6896 H            1    LIG   0.0000
  24 H            3.1418    -1.5424     1.5300 H            1    LIG   0.0000
  25 H            3.7034    -4.1548     2.7219 H            1    LIG   0.0000
  26 H            4.8786    -3.3082     1.9677 H            1    LIG   0.0000
  27 H            5.3942    -5.1269     0.5972 H            1    LIG   0.0000
  28 H            5.3612    -5.6850     2.1316 H            1    LIG   0.0000
  29 H            2.3281    -6.4331    -0.2882 H            1    LIG   0.0000
  30 H            3.7465    -5.9348    -0.9259 H            1    LIG   0.0000
  31 H            4.0573    -0.4089    -0.0517 H            1    LIG   0.0000
  32 H            4.1467     1.0075    -0.8594 H            1    LIG   0.0000
  33 H            4.1646     0.9962     0.7734 H            1    LIG   0.0000
@<TRIPOS>BOND
   1        1        2 1
   2        2        3 2
   3        3        4 1
   4        4        5 1
   5        5        6 ar
   6        6        7 ar
   7        7        8 ar
   8        8        9 ar
   9        9       10 ar
  10       10        5 ar
  11        9       11 1
  12       11       12 1
  13       12       13 1
  14       13       14 1
  15       14        8 1
  16        4       15 2
  17       15       16 1
  18       15       17 1
  19       17        2 1
  20        1       18 1
  21        1       19 1
  22        1       20 1
  23        3       21 1
  24        6       22 1
  25        7       23 1
  26       10       24 1
  27       11       25 1
  28       11       26 1
  29       12       27 1
  30       12       28 1
  31       14       29 1
  32       14       30 1
  33       16       31 1
  34       16       32 1
  35       16       33 1

@<TRIPOS>MOLECULE

  33   35
SMALL
USER_CHARGES
@<TRIPOS>ATOM
   1 C1          -1.4970     2.1395     0.0107 C.3          1    LIG   0.0000
   2 C2          -0.1681     1.4029    -0.0057 C.2          1    LIG   0.0000
   3 C3           0.0164     0.0531    -0.0256 C.2          1    LIG   0.0000
   4 C4           1.3746    -0.3629    -0.0367 C.2          1    LIG   0.0000
   5 C5           1.8055    -1.7434    -0.0585 C.ar         1    LIG   0.0000
   6 C6           1.2732    -2.6463     0.8570 C.ar         1    LIG   0.0000
   7 C7           1.6866    -3.9748     0.8300 C.ar         1    LIG   0.0000
   8 C8           2.6296    -4.3977    -0.1009 C.ar         1    LIG   0.0000
   9 C9           3.1554    -3.4778    -1.0009 C.ar         1    LIG   0.0000
  10 C10          2.7488    -2.1486    -0.9954 C.ar         1    LIG   0.0000
  11 C11          4.2117    -3.9265    -1.9970 C.3          1    LIG   0.0000
  12 C12          4.1912    -5.4403    -2.1649 C.3          1    LIG   0.0000
  13 O13          4.2495    -6.0492    -0.8829 O.3          1    LIG   0.0000
  14 C14          3.0503    -5.8553    -0.1505 C.3          1    LIG   0.0000
  15 C15          2.2745     0.6603    -0.0247 C.2          1    LIG   0.0000
  16 C16          3.7904     0.5547    -0.0421 C.3          1    LIG   0.0000
  17 S17          1.3791     2.1079    -0.0048 S.3          1    LIG   0.0000
  18 H           -2.2457     1.4766     0.0061 H            1    LIG   0.0000
  19 H           -1.5557     2.7029     0.8348 H            1    LIG   0.0000
  20 H           -1.5642     2.7238    -0.7981 H            1    LIG   0.0000
  21 H           -0.7454    -0.5947    -0.0318 H            1    LIG   0.0000
  22 H            0.5983    -2.3425     1.5294 H            1    LIG   0.0000
  23 H            1.3040    -4.6284     1.4830 H            1    LIG   0.0000
  24 H            3.1274    -1.4968    -1.6525 H            1    LIG   0.0000
  25 H            5.1131    -3.6457    -1.6674 H            1    LIG   0.0000
  26 H            4.0314    -3.4963    -2.8816 H            1    LIG   0.0000
  27 H            3.3485    -5.7148    -2.6283 H            1    LIG   0.0000
  28 H            4.9795    -5.7280    -2.7088 H            1    LIG   0.0000
  29 H            3.1892    -6.1812     0.7846 H            1    LIG   0.0000
  30 H            2.3209    -6.3852    -0.5833 H            1    LIG   0.0000
  31 H            4.0573    -0.4089    -0.0517 H            1    LIG   0.0000
  32 H            4.1467     1.0075    -0.8594 H            1    LIG   0.0000
  33 H            4.1646     0.9962     0.7734 H            1    LIG   0.0000
@<TRIPOS>BOND
   1        1        2 1
   2        2        3 2
   3        3        4 1
   4        4        5 1
   5        5        6 ar
   6        6        7 ar
   7        7        8 ar
   8        8        9 ar
   9        9       10 ar
  10       10        5 ar
  11        9       11 1
  12       11       12 1
  13       12       13 1
  14       13       14 1
  15       14        8 1
  16        4       15 2
  17       15       16 1
  18       15       17 1
  19       17        2 1
  20        1       18 1
  21        1       19 1
  22        1       20 1
  23        3       21 1
  24        6       22 1
  25        7       23 1
  26       10       24 1
  27       11       25 1
  28       11       26 1
  29       12       27 1
  30       12       28 1
  31       14       29 1
  32       14       30 1
  33       16       31 1
  34       16       32 1
  35       16       33 1

@<TRIPOS>MOLECULE

  33   35
SMALL
USER_CHARGES
@<TRIPOS>ATOM
   1 C1          -1.4970     2.1395     0.0107 C.3          1    LIG   0.0000
   2 C2          -0.1681     1.4029    -0.0057 C.2          1    LIG   0.0000
   3 C3           0.0164     0.0531    -0.0256 C.2          1    LIG   0.0000
   4 C4           1.3746    -0.3629    -0.0367 C.2          1    LIG   0.0000
   5 C5           1.8055    -1.7434    -0.0585 C.ar         1    LIG   0.0000
   6 C6           2.7566    -2.1832     0.8573 C.ar         1    LIG   0.0000
   7 C7           3.1654    -3.5132     0.8365 C.ar         1    LIG   0.0000
   8 C8           2.6324    -4.3969    -0.0961 C.ar         1    LIG   0.0000
   9 C9           1.6898    -3.9352    -1.0077 C.ar         1    LIG   0.0000
  10 C10          1.2625    -2.6126    -0.9973 C.ar         1    LIG   0.0000
  11 C11          1.1302    -4.8876    -2.0513 C.3          1    LIG   0.0000
  12 C12          1.3461    -6.3368    -1.6348 C.3          1    LIG   0.0000
  13 O13          2.7129    -6.5224    -1.2956 O.3          1    LIG   0.0000
  14 C14          3.0539    -5.8551    -0.0912 C.3          1    LIG   0.0000
  15 C15          2.2745     0.6603    -0.0247 C.2          1    LIG   0.0000
  16 C16          3.7904     0.5547    -0.0421 C.3          1    LIG   0.0000
  17 S17          1.3791     2.1079    -0.0048 S.3          1    LIG   0.0000
  18 H           -2.2457     1.4766     0.0061 H            1    LIG   0.0000
  19 H           -1.5557     2.7029     0.8348 H            1    LIG   0.0000
  20 H           -1.5642     2.7238    -0.7981 H            1    LIG   0.0000
  21 H           -0.7454    -0.5947    -0.0318 H            1    LIG   0.0000
  22 H            3.1437    -1.5478     1.5255 H            1    LIG   0.0000
  23 H            3.8455    -3.8352     1.4952 H            1    LIG   0.0000
  24 H            0.5780    -2.2927    -1.6524 H            1    LIG   0.0000
  25 H            1.5914    -4.7253    -2.9236 H            1    LIG   0.0000
  26 H            0.1500    -4.7194    -2.1561 H            1    LIG   0.0000
  27 H            0.7727    -6.5470    -0.8430 H            1    LIG   0.0000
  28 H            1.1035    -6.9429    -2.3923 H            1    LIG   0.0000
  29 H            4.0452    -5.9021     0.0320 H            1    LIG   0.0000
  30 H            2.6010    -6.3175     0.6711 H            1    LIG   0.0000
  31 H            4.0573    -0.4089    -0.0517 H            1    LIG   0.0000
  32 H            4.1467     1.0075    -0.8594 H            1    LIG   0.0000
  33 H            4.1646     0.9962     0.7734 H            1    LIG   0.0000
@<TRIPOS>BOND
   1        1        2 1
   2        2        3 2
   3        3        4 1
   4        4        5 1
   5        5        6 ar
   6        6        7 ar
   7        7        8 ar
   8        8        9 ar
   9        9       10 ar
  10       10        5 ar
  11        9       11 1
  12       11       12 1
  13       12       13 1
  14       13       14 1
  15       14        8 1
  16        4       15 2
  17       15       16 1
  18       15       17 1
  19       17        2 1
  20        1       18 1
  21        1       19 1
  22        1       20 1
  23        3       21 1
  24        6       22 1
  25        7       23 1
  26       10       24 1
  27       11       25 1
  28       11       26 1
  29       12       27 1
  30       12       28 1
  31       14       29 1
  32       14       30 1
  33       16       31 1
  34       16       32 1
  35       16       33 1

@<TRIPOS>MOLECULE

  33   35
SMALL
USER_CHARGES
@<TRIPOS>ATOM
   1 C1          -1.4970     2.1395     0.0107 C.3          1    LIG   0.0000
   2 C2          -0.1681     1.4029    -0.0057 C.2          1    LIG   0.0000
   3 C3           0.0164     0.0531    -0.0256 C.2          1    LIG   0.0000
   4 C4           1.3746    -0.3629    -0.0367 C.2          1    LIG   0.0000
   5 C5           1.8055    -1.7434    -0.0585 C.ar         1    LIG   0.0000
   6 C6           2.7487    -2.1565    -0.9946 C.ar         1    LIG   0.0000
   7 C7           3.1645    -3.4845    -1.0094 C.ar         1    LIG   0.0000
   8 C8           2.6379    -4.3951    -0.0995 C.ar         1    LIG   0.0000
   9 C9           1.6903    -3.9639     0.8218 C.ar         1    LIG   0.0000
  10 C10          1.2686    -2.6399     0.8580 C.ar         1    LIG   0.0000
  11 C11          1.0857    -4.9620     1.7951 C.3          1    LIG   0.0000
  12 C12          1.9651    -6.1995     1.9197 C.3          1    LIG   0.0000
  13 O13          2.2520    -6.6965     0.6203 O.3          1    LIG   0.0000
  14 C14          3.1214    -5.8340    -0.0954 C.3          1    LIG   0.0000
  15 C15          2.2745     0.6603    -0.0247 C.2          1    LIG   0.0000
  16 C16          3.7904     0.5547    -0.0421 C.3          1    LIG   0.0000
  17 S17          1.3791     2.1079    -0.0048 S.3          1    LIG   0.0000
  18 H           -2.2457     1.4766     0.0061 H            1    LIG   0.0000
  19 H           -1.5557     2.7029     0.8348 H            1    LIG   0.0000
  20 H           -1.5642     2.7238    -0.7981 H            1    LIG   0.0000
  21 H           -0.7454    -0.5947    -0.0318 H            1    LIG   0.0000
  22 H            3.1250    -1.5037    -1.6520 H            1    LIG   0.0000
  23 H            3.8452    -3.7854    -1.6774 H            1    LIG   0.0000
  24 H            0.5924    -2.3383     1.5301 H            1    LIG   0.0000
  25 H            0.1817    -5.2344     1.4656 H            1    LIG   0.0000
  26 H            0.9972    -4.5313     2.6933 H            1    LIG   0.0000
  27 H            2.8183    -5.9591     2.3825 H            1    LIG   0.0000
  28 H            1.4852    -6.8999     2.4480 H            1    LIG   0.0000
  29 H            3.1841    -6.1540    -1.0407 H            1    LIG   0.0000
  30 H            4.0265    -5.8671     0.3284 H            1    LIG   0.0000
  31 H            4.0573    -0.4089    -0.0517 H            1    LIG   0.0000
  32 H            4.1467     1.0075    -0.8594 H            1    LIG   0.0000
  33 H            4.1646     0.9962     0.7734 H            1    LIG   0.0000
@<TRIPOS>BOND
   1        1        2 1
   2        2        3 2
   3        3        4 1
   4        4        5 1
   5        5        6 ar
   6        6        7 ar
   7        7        8 ar
   8        8        9 ar
   9        9       10 ar
  10       10        5 ar
  11        9       11 1
  12       11       12 1
  13       12       13 1
  14       13       14 1
  15       14        8 1
  16        4       15 2
  17       15       16 1
  18       15       17 1
  19       17        2 1
  20        1       18 1
  21        1       19 1
  22        1       20 1
  23        3       21 1
  24        6       22 1
  25        7       23 1
  26       10       24 1
  27       11       25 1
  28       11       26 1
  29       12       27 1
  30       12       28 1
  31       14       29 1
  32       14       30 1
  33       16       31 1
  34       16       32 1
  35       16       33 1

@<TRIPOS>MOLECULE

  33   35
SMALL
USER_CHARGES
@<TRIPOS>ATOM
   1 C1          -1.4970     2.1395     0.0107 C.3          1    LIG   0.0000
   2 C2          -0.1681     1.4029    -0.0057 C.2          1    LIG   0.0000
   3 C3           0.0164     0.0531    -0.0256 C.2          1    LIG   0.0000
   4 C4           1.3746    -0.3629    -0.0367 C.2          1    LIG   0.0000
   5 C5           1.8069    -1.7476    -0.0585 C.ar         1    LIG   0.0000
   6 C6           1.6233    -2.5151    -1.2050 C.ar         1    LIG   0.0000
   7 C7           2.0463    -3.8430    -1.1955 C.ar         1    LIG   0.0000
   8 C8           2.6418    -4.4321    -0.0855 C.ar         1    LIG   0.0000
   9 C9           2.8255    -3.6168     1.0375 C.ar         1    LIG   0.0000
  10 C10          2.4109    -2.2953     1.0711 C.ar         1    LIG   0.0000
  11 C11          3.5154    -4.1837     2.2684 C.3          1    LIG   0.0000
  12 C12          3.5467    -5.7043     2.2603 C.3          1    LIG   0.0000
  13 O13          3.9821    -6.2009     1.0020 O.3          1    LIG   0.0000
  14 C14          3.0754    -5.8908    -0.0531 C.3          1    LIG   0.0000
  15 C15          2.2745     0.6603    -0.0247 C.2          1    LIG   0.0000
  16 C16          3.7904     0.5547    -0.0421 C.3          1    LIG   0.0000
  17 S17          1.3791     2.1079    -0.0048 S.3          1    LIG   0.0000
  18 H           -2.2457     1.4766     0.0061 H            1    LIG   0.0000
  19 H           -1.5557     2.7029     0.8348 H            1    LIG   0.0000
  20 H           -1.5642     2.7238    -0.7981 H            1    LIG   0.0000
  21 H           -0.7454    -0.5947    -0.0318 H            1    LIG   0.0000
  22 H            1.1965    -2.1216    -2.0193 H            1    LIG   0.0000
  23 H            1.9165    -4.3942    -2.0198 H            1    LIG   0.0000
  24 H            2.5432    -1.7428     1.8940 H            1    LIG   0.0000
  25 H            3.0242    -3.8760     3.0833 H            1    LIG   0.0000
  26 H            4.4550    -3.8424     2.2969 H            1    LIG   0.0000
  27 H            4.1740    -6.0218     2.9714 H            1    LIG   0.0000
  28 H            2.6275    -6.0508     2.4476 H            1    LIG   0.0000
  29 H            2.2599    -6.4593     0.0555 H            1    LIG   0.0000
  30 H            3.5189    -6.1068    -0.9230 H            1    LIG   0.0000
  31 H            4.0573    -0.4089    -0.0517 H            1    LIG   0.0000
  32 H            4.1467     1.0075    -0.8594 H            1    LIG   0.0000
  33 H            4.1646     0.9962     0.7734 H            1    LIG   0.0000
@<TRIPOS>BOND
   1        1        2 1
   2        2        3 2
   3        3        4 1
   4        4        5 1
   5        5        6 ar
   6        6        7 ar
   7        7        8 ar
   8        8        9 ar
   9        9       10 ar
  10       10        5 ar
  11        9       11 1
  12       11       12 1
  13       12       13 1
  14       13       14 1
  15       14        8 1
  16        4       15 2
  17       15       16 1
  18       15       17 1
  19       17        2 1
  20        1       18 1
  21        1       19 1
  22        1       20 1
  23        3       21 1
  24        6       22 1
  25        7       23 1
  26       10       24 1
  27       11       25 1
  28       11       26 1
  29       12       27 1
  30       12       28 1
  31       14       29 1
  32       14       30 1
  33       16       31 1
  34       16       32 1
  35       16       33 1

@<TRIPOS>MOLECULE

  33   35
SMALL
USER_CHARGES
@<TRIPOS>ATOM
   1 C1          -1.4970     2.1395     0.0107 C.3          1    LIG   0.0000
   2 C2          -0.1681     1.4029    -0.0057 C.2          1    LIG   0.0000
   3 C3           0.0164     0.0531    -0.0256 C.2          1    LIG   0.0000
   4 C4           1.3746    -0.3629    -0.0367 C.2          1    LIG   0.0000
   5 C5           1.8058    -1.7441    -0.0585 C.ar         1    LIG   0.0000
   6 C6           1.2532    -2.6126    -0.9918 C.ar         1    LIG   0.0000
   7 C7           1.6520    -3.9447    -1.0001 C.ar         1    LIG   0.0000
   8 C8           2.5966    -4.3927    -0.0793 C.ar         1    LIG   0.0000
   9 C9           3.1481    -3.5070     0.8341 C.ar         1    LIG   0.0000
  10 C10          2.7554    -2.1753     0.8608 C.ar         1    LIG   0.0000
  11 C11          4.1631    -4.0214     1.8316 C.3          1    LIG   0.0000
  12 C12          3.5164    -5.2674     2.4015 C.3          1    LIG   0.0000
  13 O13          2.9453    -6.1682     1.4468 O.3          1    LIG   0.0000
  14 C14          3.0567    -5.8318     0.0699 C.3          1    LIG   0.0000
  15 C15          2.2745     0.6603    -0.0247 C.2          1    LIG   0.0000
  16 C16          3.7904     0.5547    -0.0421 C.3          1    LIG   0.0000
  17 S17          1.3791     2.1079    -0.0048 S.3          1    LIG   0.0000
  18 H           -2.2457     1.4766     0.0061 H            1    LIG   0.0000
  19 H           -1.5557     2.7029     0.8348 H            1    LIG   0.0000
  20 H           -1.5642     2.7238    -0.7981 H            1    LIG   0.0000
  21 H           -0.7454    -0.5947    -0.0318 H            1    LIG   0.0000
  22 H            0.5764    -2.2833    -1.6503 H            1    LIG   0.0000
  23 H            1.2612    -4.5802    -1.6660 H            1    LIG   0.0000
  24 H            3.1472    -1.5403     1.5266 H            1    LIG   0.0000
  25 H            4.3289    -3.3463     2.5505 H            1    LIG   0.0000
  26 H            5.0261    -4.2443     1.3781 H            1    LIG   0.0000
  27 H            4.2140    -5.7671     2.9149 H            1    LIG   0.0000
  28 H            2.7885    -4.9779     3.0230 H            1    LIG   0.0000
  29 H            2.4776    -6.4353    -0.4782 H            1    LIG   0.0000
  30 H            4.0070    -5.9203    -0.2286 H            1    LIG   0.0000
  31 H            4.0573    -0.4089    -0.0517 H            1    LIG   0.0000
  32 H            4.1467     1.0075    -0.8594 H            1    LIG   0.0000
  33 H            4.1646     0.9962     0.7734 H            1    LIG   0.0000
@<TRIPOS>BOND
   1        1        2 1
   2        2        3 2
   3        3        4 1
   4        4        5 1
   5        5        6 ar
   6        6        7 ar
   7        7        8 ar
   8        8        9 ar
   9        9       10 ar
  10       10        5 ar
  11        9       11 1
  12       11       12 1
  13       12       13 1
  14       13       14 1
  15       14        8 1
  16        4       15 2
  17       15       16 1
  18       15       17 1
  19       17        2 1
  20        1       18 1
  21        1       19 1
  22        1       20 1
  23        3       21 1
  24        6       22 1
  25        7       23 1
  26       10       24 1
  27       11       25 1
  28       11       26 1
  29       12       27 1
  30       12       28 1
  31       14       29 1
  32       14       30 1
  33       16       31 1
  34       16       32 1
  35       16       33 1

@<TRIPOS>MOLECULE

  33   35
SMALL
USER_CHARGES
@<TRIPOS>ATOM
   1 C1          -1.4970     2.1395     0.0107 C.3          1    LIG   0.0000
   2 C2          -0.1681     1.4029    -0.0057 C.2          1    LIG   0.0000
   3 C3           0.0164     0.0531    -0.0256 C.2          1    LIG   0.0000
   4 C4           1.3746    -0.3629    -0.0367 C.2          1    LIG   0.0000
   5 C5           1.8058    -1.7441    -0.0585 C.ar         1    LIG   0.0000
   6 C6           1.2744    -2.6352     0.8658 C.ar         1    LIG   0.0000
   7 C7           1.7034    -3.9579     0.8588 C.ar         1    LIG   0.0000
   8 C8           2.6545    -4.3748    -0.0697 C.ar         1    LIG   0.0000
   9 C9           3.1613    -3.4741    -0.9943 C.ar         1    LIG   0.0000
  10 C10          2.7493    -2.1480    -0.9962 C.ar         1    LIG   0.0000
  11 C11          4.2025    -3.9491    -1.9845 C.3          1    LIG   0.0000
  12 C12          5.2144    -4.6818    -1.1273 C.3          1    LIG   0.0000
  13 O13          4.6756    -5.6025    -0.1728 O.3          1    LIG   0.0000
  14 C14          3.2637    -5.7640    -0.1325 C.3          1    LIG   0.0000
  15 C15          2.2745     0.6603    -0.0247 C.2          1    LIG   0.0000
  16 C16          3.7904     0.5547    -0.0421 C.3          1    LIG   0.0000
  17 S17          1.3791     2.1079    -0.0048 S.3          1    LIG   0.0000
  18 H           -2.2457     1.4766     0.0061 H            1    LIG   0.0000
  19 H           -1.5557     2.7029     0.8348 H            1    LIG   0.0000
  20 H           -1.5642     2.7238    -0.7981 H            1    LIG   0.0000
  21 H           -0.7454    -0.5947    -0.0318 H            1    LIG   0.0000
  22 H            0.5912    -2.3287     1.5286 H            1    LIG   0.0000
  23 H            1.3296    -4.6090     1.5194 H            1    LIG   0.0000
  24 H            3.1232    -1.4978    -1.6576 H            1    LIG   0.0000
  25 H            4.6276    -3.1744    -2.4526 H            1    LIG   0.0000
  26 H            3.7964    -4.5646    -2.6599 H            1    LIG   0.0000
  27 H            5.8200    -5.1926    -1.7375 H            1    LIG   0.0000
  28 H            5.7449    -3.9975    -0.6272 H            1    LIG   0.0000
  29 H            3.0020    -6.2897     0.6769 H            1    LIG   0.0000
  30 H            2.9495    -6.2391    -0.9544 H            1    LIG   0.0000
  31 H            4.0573    -0.4089    -0.0517 H            1    LIG   0.0000
  32 H            4.1467     1.0075    -0.8594 H            1    LIG   0.0000
  33 H            4.1646     0.9962     0.7734 H            1    LIG   0.0000
@<TRIPOS>BOND
   1        1        2 1
   2        2        3 2
   3        3        4 1
   4        4        5 1
   5        5        6 ar
   6        6        7 ar
   7        7        8 ar
   8        8        9 ar
   9        9       10 ar
  10       10        5 ar
  11        9       11 1
  12       11       12 1
  13       12       13 1
  14       13       14 1
  15       14        8 1
  16        4       15 2
  17       15       16 1
  18       15       17 1
  19       17        2 1
  20        1       18 1
  21        1       19 1
  22        1       20 1
  23        3       21 1
  24        6       22 1
  25        7       23 1
  26       10       24 1
  27       11       25 1
  28       11       26 1
  29       12       27 1
  30       12       28 1
  31       14       29 1
  32       14       30 1
  33       16       31 1
  34       16       32 1
  35       16       33 1

@<TRIPOS>MOLECULE

  33   35
SMALL
USER_CHARGES
@<TRIPOS>ATOM
   1 C1          -1.4970     2.1395     0.0107 C.3          1    LIG   0.0000
   2 C2          -0.1681     1.4029    -0.0057 C.2          1    LIG   0.0000
   3 C3           0.0164     0.0531    -0.0256 C.2          1    LIG   0.0000
   4 C4           1.3746    -0.3629    -0.0367 C.2          1    LIG   0.0000
   5 C5           1.8058    -1.7441    -0.0585 C.ar         1    LIG   0.0000
   6 C6           2.7625    -2.1705     0.8545 C.ar         1    LIG   0.0000
   7 C7           3.1923    -3.4925     0.8210 C.ar         1    LIG   0.0000
   8 C8           2.6620    -4.3717    -0.1206 C.ar         1    LIG   0.0000
   9 C9           1.6965    -3.9311    -1.0132 C.ar         1    LIG   0.0000
  10 C10          1.2617    -2.6124    -0.9982 C.ar         1    LIG   0.0000
  11 C11          1.1453    -4.9027    -2.0341 C.3          1    LIG   0.0000
  12 C12          2.3808    -5.5427    -2.6336 C.3          1    LIG   0.0000
  13 O13          3.3714    -5.9857    -1.7000 O.3          1    LIG   0.0000
  14 C14          3.1008    -5.8120    -0.3151 C.3          1    LIG   0.0000
  15 C15          2.2745     0.6603    -0.0247 C.2          1    LIG   0.0000
  16 C16          3.7904     0.5547    -0.0421 C.3          1    LIG   0.0000
  17 S17          1.3791     2.1079    -0.0048 S.3          1    LIG   0.0000
  18 H           -2.2457     1.4766     0.0061 H            1    LIG   0.0000
  19 H           -1.5557     2.7029     0.8348 H            1    LIG   0.0000
  20 H           -1.5642     2.7238    -0.7981 H            1    LIG   0.0000
  21 H           -0.7454    -0.5947    -0.0318 H            1    LIG   0.0000
  22 H            3.1377    -1.5337     1.5282 H            1    LIG   0.0000
  23 H            3.8811    -3.8117     1.4719 H            1    LIG   0.0000
  24 H            0.5724    -2.2942    -1.6490 H            1    LIG   0.0000
  25 H            0.6185    -4.4215    -2.7348 H            1    LIG   0.0000
  26 H            0.5664    -5.5897    -1.5949 H            1    LIG   0.0000
  27 H            2.0867    -6.3355    -3.1674 H            1    LIG   0.0000
  28 H            2.8092    -4.8729    -3.2400 H            1    LIG   0.0000
  29 H            3.9252    -5.9943     0.2206 H            1    LIG   0.0000
  30 H            2.3722    -6.4338    -0.0278 H            1    LIG   0.0000
  31 H            4.0573    -0.4089    -0.0517 H            1    LIG   0.0000
  32 H            4.1467     1.0075    -0.8594 H            1    LIG   0.0000
  33 H            4.1646     0.9962     0.7734 H            1    LIG   0.0000
@<TRIPOS>BOND
   1        1        2 1
   2        2        3 2
   3        3        4 1
   4        4        5 1
   5        5        6 ar
   6        6        7 ar
   7        7        8 ar
   8        8        9 ar
   9        9       10 ar
  10       10        5 ar
  11        9       11 1
  12       11       12 1
  13       12       13 1
  14       13       14 1
  15       14        8 1
  16        4       15 2
  17       15       16 1
  18       15       17 1
  19       17        2 1
  20        1       18 1
  21        1       19 1
  22        1       20 1
  23        3       21 1
  24        6       22 1
  25        7       23 1
  26       10       24 1
  27       11       25 1
  28       11       26 1
  29       12       27 1
  30       12       28 1
  31       14       29 1
  32       14       30 1
  33       16       31 1
  34       16       32 1
  35       16       33 1

@<TRIPOS>MOLECULE

  33   35
SMALL
USER_CHARGES
@<TRIPOS>ATOM
   1 C1          -1.4970     2.1395     0.0107 C.3          1    LIG   0.0000
   2 C2          -0.1681     1.4029    -0.0057 C.2          1    LIG   0.0000
   3 C3           0.0164     0.0531    -0.0256 C.2          1    LIG   0.0000
   4 C4           1.3746    -0.3629    -0.0367 C.2          1    LIG   0.0000
   5 C5           1.8058    -1.7441    -0.0585 C.ar         1    LIG   0.0000
   6 C6           2.7413    -2.1478    -1.0031 C.ar         1    LIG   0.0000
   7 C7           3.1409    -3.4793    -1.0379 C.ar         1    LIG   0.0000
   8 C8           2.6041    -4.3896    -0.1302 C.ar         1    LIG   0.0000
   9 C9           1.6833    -3.9640     0.8153 C.ar         1    LIG   0.0000
  10 C10          1.2678    -2.6397     0.8588 C.ar         1    LIG   0.0000
  11 C11          1.1059    -4.9750     1.7820 C.3          1    LIG   0.0000
  12 C12          0.6829    -6.1283     0.8952 C.3          1    LIG   0.0000
  13 O13          1.6411    -6.5513    -0.0804 O.3          1    LIG   0.0000
  14 C14          2.8938    -5.8798    -0.1128 C.3          1    LIG   0.0000
  15 C15          2.2745     0.6603    -0.0247 C.2          1    LIG   0.0000
  16 C16          3.7904     0.5547    -0.0421 C.3          1    LIG   0.0000
  17 S17          1.3791     2.1079    -0.0048 S.3          1    LIG   0.0000
  18 H           -2.2457     1.4766     0.0061 H            1    LIG   0.0000
  19 H           -1.5557     2.7029     0.8348 H            1    LIG   0.0000
  20 H           -1.5642     2.7238    -0.7981 H            1    LIG   0.0000
  21 H           -0.7454    -0.5947    -0.0318 H            1    LIG   0.0000
  22 H            3.1230    -1.4883    -1.6507 H            1    LIG   0.0000
  23 H            3.8127    -3.7830    -1.7135 H            1    LIG   0.0000
  24 H            0.5965    -2.3368     1.5352 H            1    LIG   0.0000
  25 H            0.3199    -4.5934     2.2683 H            1    LIG   0.0000
  26 H            1.7961    -5.2693     2.4431 H            1    LIG   0.0000
  27 H            0.4807    -6.9101     1.4850 H            1    LIG   0.0000
  28 H           -0.1472    -5.8532     0.4101 H            1    LIG   0.0000
  29 H            3.4008    -6.1399    -0.9345 H            1    LIG   0.0000
  30 H            3.4297    -6.1151     0.6980 H            1    LIG   0.0000
  31 H            4.0573    -0.4089    -0.0517 H            1    LIG   0.0000
  32 H            4.1467     1.0075    -0.8594 H            1    LIG   0.0000
  33 H            4.1646     0.9962     0.7734 H            1    LIG   0.0000
@<TRIPOS>BOND
   1        1        2 1
   2        2        3 2
   3        3        4 1
   4        4        5 1
   5        5        6 ar
   6        6        7 ar
   7        7        8 ar
   8        8        9 ar
   9        9       10 ar
  10       10        5 ar
  11        9       11 1
  12       11       12 1
  13       12       13 1
  14       13       14 1
  15       14        8 1
  16        4       15 2
  17       15       16 1
  18       15       17 1
  19       17        2 1
  20        1       18 1
  21        1       19 1
  22        1       20 1
  23        3       21 1
  24        6       22 1
  25        7       23 1
  26       10       24 1
  27       11       25 1
  28       11       26 1
  29       12       27 1
  30       12       28 1
  31       14       29 1
  32       14       30 1
  33       16       31 1
  34       16       32 1
  35       16       33 1

@<TRIPOS>MOLECULE

  33   35
SMALL
USER_CHARGES
@<TRIPOS>ATOM
   1 C1          -1.4970     2.1395     0.0107 C.3          1    LIG   0.0000
   2 C2          -0.1681     1.4029    -0.0057 C.2          1    LIG   0.0000
   3 C3           0.0164     0.0531    -0.0256 C.2          1    LIG   0.0000
   4 C4           1.3746    -0.3629    -0.0367 C.2          1    LIG   0.0000
   5 C5           1.8065    -1.7465    -0.0585 C.ar         1    LIG   0.0000
   6 C6           1.2711    -2.6126    -1.0063 C.ar         1    LIG   0.0000
   7 C7           1.7148    -3.9277    -1.0364 C.ar         1    LIG   0.0000
   8 C8           2.6959    -4.3618    -0.1445 C.ar         1    LIG   0.0000
   9 C9           3.1992    -3.5292     0.8096 C.ar         1    LIG   0.0000
  10 C10          2.7597    -2.1966     0.8577 C.ar         1    LIG   0.0000
  11 C11          4.2750    -4.1090     1.7136 C.3          1    LIG   0.0000
  12 C12          5.2618    -4.7697     0.7636 C.3          1    LIG   0.0000
  13 O13          4.6639    -5.6215    -0.2149 O.3          1    LIG   0.0000
  14 C14          3.2534    -5.7751    -0.2099 C.3          1    LIG   0.0000
  15 C15          2.2745     0.6603    -0.0247 C.2          1    LIG   0.0000
  16 C16          3.7904     0.5547    -0.0421 C.3          1    LIG   0.0000
  17 S17          1.3791     2.1079    -0.0048 S.3          1    LIG   0.0000
  18 H           -2.2457     1.4766     0.0061 H            1    LIG   0.0000
  19 H           -1.5557     2.7029     0.8348 H            1    LIG   0.0000
  20 H           -1.5642     2.7238    -0.7981 H            1    LIG   0.0000
  21 H           -0.7454    -0.5947    -0.0318 H            1    LIG   0.0000
  22 H            0.5793    -2.2937    -1.6542 H            1    LIG   0.0000
  23 H            1.3290    -4.5675    -1.7011 H            1    LIG   0.0000
  24 H            3.1280    -1.5716     1.5460 H            1    LIG   0.0000
  25 H            3.8836    -4.7828     2.3404 H            1    LIG   0.0000
  26 H            4.7220    -3.3851     2.2391 H            1    LIG   0.0000
  27 H            5.7645    -4.0496     0.2853 H            1    LIG   0.0000
  28 H            5.8989    -5.3169     1.3063 H            1    LIG   0.0000
  29 H            2.9615    -6.3040     0.5870 H            1    LIG   0.0000
  30 H            2.9481    -6.2338    -1.0444 H            1    LIG   0.0000
  31 H            4.0573    -0.4089    -0.0517 H            1    LIG   0.0000
  32 H            4.1467     1.0075    -0.8594 H            1    LIG   0.0000
  33 H            4.1646     0.9962     0.7734 H            1    LIG   0.0000
@<TRIPOS>BOND
   1        1        2 1
   2        2        3 2
   3        3        4 1
   4        4        5 1
   5        5        6 ar
   6        6        7 ar
   7        7        8 ar
   8        8        9 ar
   9        9       10 ar
  10       10        5 ar
  11        9       11 1
  12       11       12 1
  13       12       13 1
  14       13       14 1
  15       14        8 1
  16        4       15 2
  17       15       16 1
  18       15       17 1
  19       17        2 1
  20        1       18 1
  21        1       19 1
  22        1       20 1
  23        3       21 1
  24        6       22 1
  25        7       23 1
  26       10       24 1
  27       11       25 1
  28       11       26 1
  29       12       27 1
  30       12       28 1
  31       14       29 1
  32       14       30 1
  33       16       31 1
  34       16       32 1
  35       16       33 1

@<TRIPOS>MOLECULE

  33   35
SMALL
USER_CHARGES
@<TRIPOS>ATOM
   1 C1          -1.4970     2.1395     0.0107 C.3          1    LIG   0.0000
   2 C2          -0.1681     1.4029    -0.0057 C.2          1    LIG   0.0000
   3 C3           0.0164     0.0531    -0.0256 C.2          1    LIG   0.0000
   4 C4           1.3746    -0.3629    -0.0367 C.2          1    LIG   0.0000
   5 C5           1.8065    -1.7465    -0.0585 C.ar         1    LIG   0.0000
   6 C6           1.2596    -2.6454     0.8515 C.ar         1    LIG   0.0000
   7 C7           1.6591    -3.9740     0.8011 C.ar         1    LIG   0.0000
   8 C8           2.5760    -4.3990    -0.1608 C.ar         1    LIG   0.0000
   9 C9           3.1426    -3.5179    -1.0323 C.ar         1    LIG   0.0000
  10 C10          2.7536    -2.1694    -0.9938 C.ar         1    LIG   0.0000
  11 C11          4.1150    -4.0998    -2.0455 C.3          1    LIG   0.0000
  12 C12          3.3887    -5.3010    -2.6308 C.3          1    LIG   0.0000
  13 O13          2.8126    -6.1767    -1.6603 O.3          1    LIG   0.0000
  14 C14          2.9687    -5.8628    -0.2855 C.3          1    LIG   0.0000
  15 C15          2.2745     0.6603    -0.0247 C.2          1    LIG   0.0000
  16 C16          3.7904     0.5547    -0.0421 C.3          1    LIG   0.0000
  17 S17          1.3791     2.1079    -0.0048 S.3          1    LIG   0.0000
  18 H           -2.2457     1.4766     0.0061 H            1    LIG   0.0000
  19 H           -1.5557     2.7029     0.8348 H            1    LIG   0.0000
  20 H           -1.5642     2.7238    -0.7981 H            1    LIG   0.0000
  21 H           -0.7454    -0.5947    -0.0318 H            1    LIG   0.0000
  22 H            0.5910    -2.3401     1.5295 H            1    LIG   0.0000
  23 H            1.2876    -4.6301     1.4580 H            1    LIG   0.0000
  24 H            3.1535    -1.5137    -1.6342 H            1    LIG   0.0000
  25 H            4.9628    -4.3839    -1.5978 H            1    LIG   0.0000
  26 H            4.3228    -3.4310    -2.7593 H            1    LIG   0.0000
  27 H            2.6558    -4.9649    -3.2222 H            1    LIG   0.0000
  28 H            4.0425    -5.8259    -3.1757 H            1    LIG   0.0000
  29 H            3.9182    -5.9961    -0.0015 H            1    LIG   0.0000
  30 H            2.3698    -6.4351     0.2746 H            1    LIG   0.0000
  31 H            4.0573    -0.4089    -0.0517 H            1    LIG   0.0000
  32 H            4.1467     1.0075    -0.8594 H            1    LIG   0.0000
  33 H            4.1646     0.9962     0.7734 H            1    LIG   0.0000
@<TRIPOS>BOND
   1        1        2 1
   2        2        3 2
   3        3        4 1
   4        4        5 1
   5        5        6 ar
   6        6        7 ar
   7        7        8 ar
   8        8        9 ar
   9        9       10 ar
  10       10        5 ar
  11        9       11 1
  12       11       12 1
  13       12       13 1
  14       13       14 1
  15       14        8 1
  16        4       15 2
  17       15       16 1
  18       15       17 1
  19       17        2 1
  20        1       18 1
  21        1       19 1
  22        1       20 1
  23        3       21 1
  24        6       22 1
  25        7       23 1
  26       10       24 1
  27       11       25 1
  28       11       26 1
  29       12       27 1
  30       12       28 1
  31       14       29 1
  32       14       30 1
  33       16       31 1
  34       16       32 1
  35       16       33 1

@<TRIPOS>MOLECULE

  33   35
SMALL
USER_CHARGES
@<TRIPOS>ATOM
   1 C1          -1.4970     2.1395     0.0107 C.3          1    LIG   0.0000
   2 C2          -0.1681     1.4029    -0.0057 C.2          1    LIG   0.0000
   3 C3           0.0164     0.0531    -0.0256 C.2          1    LIG   0.0000
   4 C4           1.3746    -0.3629    -0.0367 C.2          1    LIG   0.0000
   5 C5           1.8065    -1.7465    -0.0585 C.ar         1    LIG   0.0000
   6 C6           2.3985    -2.2934     1.0754 C.ar         1    LIG   0.0000
   7 C7           2.7806    -3.6279     1.0524 C.ar         1    LIG   0.0000
   8 C8           2.5527    -4.4075    -0.0820 C.ar         1    LIG   0.0000
   9 C9           2.0060    -3.8699    -1.2085 C.ar         1    LIG   0.0000
  10 C10          1.6167    -2.5210    -1.2051 C.ar         1    LIG   0.0000
  11 C11          1.7905    -4.8203    -2.3751 C.3          1    LIG   0.0000
  12 C12          1.0991    -6.0294    -1.7646 C.3          1    LIG   0.0000
  13 O13          1.7213    -6.5343    -0.5820 O.3          1    LIG   0.0000
  14 C14          2.8909    -5.8900    -0.1027 C.3          1    LIG   0.0000
  15 C15          2.2745     0.6603    -0.0247 C.2          1    LIG   0.0000
  16 C16          3.7904     0.5547    -0.0421 C.3          1    LIG   0.0000
  17 S17          1.3791     2.1079    -0.0048 S.3          1    LIG   0.0000
  18 H           -2.2457     1.4766     0.0061 H            1    LIG   0.0000
  19 H           -1.5557     2.7029     0.8348 H            1    LIG   0.0000
  20 H           -1.5642     2.7238    -0.7981 H            1    LIG   0.0000
  21 H           -0.7454    -0.5947    -0.0318 H            1    LIG   0.0000
  22 H            2.5460    -1.7355     1.8921 H            1    LIG   0.0000
  23 H            3.2217    -4.0326     1.8534 H            1    LIG   0.0000
  24 H            1.2047    -2.1159    -2.0213 H            1    LIG   0.0000
  25 H            2.6651    -5.0825    -2.7827 H            1    LIG   0.0000
  26 H            1.2113    -4.3974    -3.0722 H            1    LIG   0.0000
  27 H            0.1604    -5.7705    -1.5372 H            1    LIG   0.0000
  28 H            1.0872    -6.7600    -2.4473 H            1    LIG   0.0000
  29 H            3.6626    -6.0647    -0.7141 H            1    LIG   0.0000
  30 H            3.1154    -6.2109     0.8175 H            1    LIG   0.0000
  31 H            4.0573    -0.4089    -0.0517 H            1    LIG   0.0000
  32 H            4.1467     1.0075    -0.8594 H            1    LIG   0.0000
  33 H            4.1646     0.9962     0.7734 H            1    LIG   0.0000
@<TRIPOS>BOND
   1        1        2 1
   2        2        3 2
   3        3        4 1
   4        4        5 1
   5        5        6 ar
   6        6        7 ar
   7        7        8 ar
   8        8        9 ar
   9        9       10 ar
  10       10        5 ar
  11        9       11 1
  12       11       12 1
  13       12       13 1
  14       13       14 1
  15       14        8 1
  16        4       15 2
  17       15       16 1
  18       15       17 1
  19       17        2 1
  20        1       18 1
  21        1       19 1
  22        1       20 1
  23        3       21 1
  24        6       22 1
  25        7       23 1
  26       10       24 1
  27       11       25 1
  28       11       26 1
  29       12       27 1
  30       12       28 1
  31       14       29 1
  32       14       30 1
  33       16       31 1
  34       16       32 1
  35       16       33 1

@<TRIPOS>MOLECULE

  33   35
SMALL
USER_CHARGES
@<TRIPOS>ATOM
   1 C1          -1.4970     2.1395     0.0107 C.3          1    LIG   0.0000
   2 C2          -0.1681     1.4029    -0.0057 C.2          1    LIG   0.0000
   3 C3           0.0164     0.0531    -0.0256 C.2          1    LIG   0.0000
   4 C4           1.3746    -0.3629    -0.0367 C.2          1    LIG   0.0000
   5 C5           1.8065    -1.7465    -0.0585 C.ar         1    LIG   0.0000
   6 C6           2.4125    -2.2532    -1.2036 C.ar         1    LIG   0.0000
   7 C7           2.8489    -3.5711    -1.2016 C.ar         1    LIG   0.0000
   8 C8           2.6998    -4.3619    -0.0619 C.ar         1    LIG   0.0000
   9 C9           2.0755    -3.8838     1.0509 C.ar         1    LIG   0.0000
  10 C10          1.6242    -2.5544     1.0661 C.ar         1    LIG   0.0000
  11 C11          1.9868    -4.8315     2.2361 C.3          1    LIG   0.0000
  12 C12          3.3967    -5.3777     2.3992 C.3          1    LIG   0.0000
  13 O13          3.9923    -5.8533     1.1911 O.3          1    LIG   0.0000
  14 C14          3.2401    -5.7824    -0.0099 C.3          1    LIG   0.0000
  15 C15          2.2745     0.6603    -0.0247 C.2          1    LIG   0.0000
  16 C16          3.7904     0.5547    -0.0421 C.3          1    LIG   0.0000
  17 S17          1.3791     2.1079    -0.0048 S.3          1    LIG   0.0000
  18 H           -2.2457     1.4766     0.0061 H            1    LIG   0.0000
  19 H           -1.5557     2.7029     0.8348 H            1    LIG   0.0000
  20 H           -1.5642     2.7238    -0.7981 H            1    LIG   0.0000
  21 H           -0.7454    -0.5947    -0.0318 H            1    LIG   0.0000
  22 H            2.5316    -1.6786    -2.0133 H            1    LIG   0.0000
  23 H            3.2724    -3.9558    -2.0218 H            1    LIG   0.0000
  24 H            1.1735    -2.1870     1.8797 H            1    LIG   0.0000
  25 H            1.3413    -5.5718     2.0482 H            1    LIG   0.0000
  26 H            1.7010    -4.3411     3.0594 H            1    LIG   0.0000
  27 H            3.9738    -4.6477     2.7654 H            1    LIG   0.0000
  28 H            3.3644    -6.1356     3.0508 H            1    LIG   0.0000
  29 H            2.4891    -6.4424     0.0078 H            1    LIG   0.0000
  30 H            3.8248    -5.9640    -0.8006 H            1    LIG   0.0000
  31 H            4.0573    -0.4089    -0.0517 H            1    LIG   0.0000
  32 H            4.1467     1.0075    -0.8594 H            1    LIG   0.0000
  33 H            4.1646     0.9962     0.7734 H            1    LIG   0.0000
@<TRIPOS>BOND
   1        1        2 1
   2        2        3 2
   3        3        4 1
   4        4        5 1
   5        5        6 ar
   6        6        7 ar
   7        7        8 ar
   8        8        9 ar
   9        9       10 ar
  10       10        5 ar
  11        9       11 1
  12       11       12 1
  13       12       13 1
  14       13       14 1
  15       14        8 1
  16        4       15 2
  17       15       16 1
  18       15       17 1
  19       17        2 1
  20        1       18 1
  21        1       19 1
  22        1       20 1
  23        3       21 1
  24        6       22 1
  25        7       23 1
  26       10       24 1
  27       11       25 1
  28       11       26 1
  29       12       27 1
  30       12       28 1
  31       14       29 1
  32       14       30 1
  33       16       31 1
  34       16       32 1
  35       16       33 1

