@<TRIPOS>MOLECULE
*****
 33 35 0 0 0
SMALL
USER_CHARGES

@<TRIPOS>ATOM
      1 C1         -1.4970    2.1395    0.0107 C.3     1  LIG1        0.0000
      2 C2         -0.1681    1.4029   -0.0057 C.2     1  LIG1        0.0000
      3 C3          0.0164    0.0531   -0.0256 C.2     1  LIG1        0.0000
      4 C4          1.3746   -0.3629   -0.0367 C.2     1  LIG1        0.0000
      5 C5          1.8069   -1.7476   -0.0585 C.ar    1  LIG1        0.0000
      6 C6          1.6233   -2.5151   -1.2050 C.ar    1  LIG1        0.0000
      7 C7          2.0463   -3.8430   -1.1955 C.ar    1  LIG1        0.0000
      8 C8          2.6418   -4.4321   -0.0855 C.ar    1  LIG1        0.0000
      9 C9          2.8255   -3.6168    1.0375 C.ar    1  LIG1        0.0000
     10 C10         2.4109   -2.2953    1.0711 C.ar    1  LIG1        0.0000
     11 C11         3.5154   -4.1837    2.2684 C.3     1  LIG1        0.0000
     12 C12         3.5467   -5.7043    2.2603 C.3     1  LIG1        0.0000
     13 O13         3.9821   -6.2009    1.0020 O.3     1  LIG1        0.0000
     14 C14         3.0754   -5.8908   -0.0531 C.3     1  LIG1        0.0000
     15 C15         2.2745    0.6603   -0.0247 C.2     1  LIG1        0.0000
     16 C16         3.7904    0.5547   -0.0421 C.3     1  LIG1        0.0000
     17 S17         1.3791    2.1079   -0.0048 S.3     1  LIG1        0.0000
     18 H          -2.2457    1.4766    0.0061 H       1  LIG1        0.0000
     19 H          -1.5557    2.7029    0.8348 H       1  LIG1        0.0000
     20 H          -1.5642    2.7238   -0.7981 H       1  LIG1        0.0000
     21 H          -0.7454   -0.5947   -0.0318 H       1  LIG1        0.0000
     22 H           1.1965   -2.1216   -2.0193 H       1  LIG1        0.0000
     23 H           1.9165   -4.3942   -2.0198 H       1  LIG1        0.0000
     24 H           2.5432   -1.7428    1.8940 H       1  LIG1        0.0000
     25 H           3.0242   -3.8760    3.0833 H       1  LIG1        0.0000
     26 H           4.4550   -3.8424    2.2969 H       1  LIG1        0.0000
     27 H           4.1740   -6.0218    2.9714 H       1  LIG1        0.0000
     28 H           2.6275   -6.0508    2.4476 H       1  LIG1        0.0000
     29 H           2.2599   -6.4593    0.0555 H       1  LIG1        0.0000
     30 H           3.5189   -6.1068   -0.9230 H       1  LIG1        0.0000
     31 H           4.0573   -0.4089   -0.0517 H       1  LIG1        0.0000
     32 H           4.1467    1.0075   -0.8594 H       1  LIG1        0.0000
     33 H           4.1646    0.9962    0.7734 H       1  LIG1        0.0000
@<TRIPOS>BOND
     1     1     2    1
     2     2     3    2
     3     3     4    1
     4     4     5    1
     5     5     6   ar
     6     6     7   ar
     7     7     8   ar
     8     8     9   ar
     9     9    10   ar
    10    10     5   ar
    11     9    11    1
    12    11    12    1
    13    12    13    1
    14    13    14    1
    15    14     8    1
    16     4    15    2
    17    15    16    1
    18    15    17    1
    19    17     2    1
    20     1    18    1
    21     1    19    1
    22     1    20    1
    23     3    21    1
    24     6    22    1
    25     7    23    1
    26    10    24    1
    27    11    25    1
    28    11    26    1
    29    12    27    1
    30    12    28    1
    31    14    29    1
    32    14    30    1
    33    16    31    1
    34    16    32    1
    35    16    33    1
