@<TRIPOS>MOLECULE
*****
 33 35 0 0 0
SMALL
USER_CHARGES

@<TRIPOS>ATOM
      1 C1         -1.4970    2.1395    0.0107 C.3     1  LIG1        0.0000
      2 C2         -0.1681    1.4029   -0.0057 C.2     1  LIG1        0.0000
      3 C3          0.0164    0.0531   -0.0256 C.2     1  LIG1        0.0000
      4 C4          1.3746   -0.3629   -0.0367 C.2     1  LIG1        0.0000
      5 C5          1.8058   -1.7441   -0.0585 C.ar    1  LIG1        0.0000
      6 C6          2.7413   -2.1478   -1.0031 C.ar    1  LIG1        0.0000
      7 C7          3.1409   -3.4793   -1.0379 C.ar    1  LIG1        0.0000
      8 C8          2.6041   -4.3896   -0.1302 C.ar    1  LIG1        0.0000
      9 C9          1.6833   -3.9640    0.8153 C.ar    1  LIG1        0.0000
     10 C10         1.2678   -2.6397    0.8588 C.ar    1  LIG1        0.0000
     11 C11         1.1059   -4.9750    1.7820 C.3     1  LIG1        0.0000
     12 C12         0.6829   -6.1283    0.8952 C.3     1  LIG1        0.0000
     13 O13         1.6411   -6.5513   -0.0804 O.3     1  LIG1        0.0000
     14 C14         2.8938   -5.8798   -0.1128 C.3     1  LIG1        0.0000
     15 C15         2.2745    0.6603   -0.0247 C.2     1  LIG1        0.0000
     16 C16         3.7904    0.5547   -0.0421 C.3     1  LIG1        0.0000
     17 S17         1.3791    2.1079   -0.0048 S.3     1  LIG1        0.0000
     18 H          -2.2457    1.4766    0.0061 H       1  LIG1        0.0000
     19 H          -1.5557    2.7029    0.8348 H       1  LIG1        0.0000
     20 H          -1.5642    2.7238   -0.7981 H       1  LIG1        0.0000
     21 H          -0.7454   -0.5947   -0.0318 H       1  LIG1        0.0000
     22 H           3.1230   -1.4883   -1.6507 H       1  LIG1        0.0000
     23 H           3.8127   -3.7830   -1.7135 H       1  LIG1        0.0000
     24 H           0.5965   -2.3368    1.5352 H       1  LIG1        0.0000
     25 H           0.3199   -4.5934    2.2683 H       1  LIG1        0.0000
     26 H           1.7961   -5.2693    2.4431 H       1  LIG1        0.0000
     27 H           0.4807   -6.9101    1.4850 H       1  LIG1        0.0000
     28 H          -0.1472   -5.8532    0.4101 H       1  LIG1        0.0000
     29 H           3.4008   -6.1399   -0.9345 H       1  LIG1        0.0000
     30 H           3.4297   -6.1151    0.6980 H       1  LIG1        0.0000
     31 H           4.0573   -0.4089   -0.0517 H       1  LIG1        0.0000
     32 H           4.1467    1.0075   -0.8594 H       1  LIG1        0.0000
     33 H           4.1646    0.9962    0.7734 H       1  LIG1        0.0000
@<TRIPOS>BOND
     1     1     2    1
     2     2     3    2
     3     3     4    1
     4     4     5    1
     5     5     6   ar
     6     6     7   ar
     7     7     8   ar
     8     8     9   ar
     9     9    10   ar
    10    10     5   ar
    11     9    11    1
    12    11    12    1
    13    12    13    1
    14    13    14    1
    15    14     8    1
    16     4    15    2
    17    15    16    1
    18    15    17    1
    19    17     2    1
    20     1    18    1
    21     1    19    1
    22     1    20    1
    23     3    21    1
    24     6    22    1
    25     7    23    1
    26    10    24    1
    27    11    25    1
    28    11    26    1
    29    12    27    1
    30    12    28    1
    31    14    29    1
    32    14    30    1
    33    16    31    1
    34    16    32    1
    35    16    33    1
