@<TRIPOS>MOLECULE

  44   48
SMALL
USER_CHARGES
@<TRIPOS>ATOM
   1 C1          -1.1943     2.3120     0.0221 C.3          1    LIG   0.0000
   2 C2           0.0470     1.4359     0.0114 C.2          1    LIG   0.0000
   3 C3           0.0680     0.0263    -0.0004 C.2          1    LIG   0.0000
   4 C4           1.3842    -0.3113    -0.0066 C.2          1    LIG   0.0000
   5 C5           1.9407    -1.7258    -0.0209 C.3          1    LIG   0.0000
   6 N6           2.1113     0.8397     0.0009 N.pl3        1    LIG   0.0000
   7 C7           3.5101     0.9241    -0.0029 C.ar         1    LIG   0.0000
   8 N8           4.2624    -0.0232    -0.5864 N.ar         1    LIG   0.0000
   9 C9           5.6031     0.0362    -0.6013 C.ar         1    LIG   0.0000
  10 C10          6.3717    -0.9522    -1.2088 C.ar         1    LIG   0.0000
  11 C11          7.7614    -0.8817    -1.2197 C.ar         1    LIG   0.0000
  12 Cl12         8.7401    -2.1491    -1.9979 Cl           1    LIG   0.0000
  13 C13          8.3928     0.1981    -0.6103 C.ar         1    LIG   0.0000
  14 C14          7.6254     1.1867    -0.0026 C.ar         1    LIG   0.0000
  15 C15          6.2358     1.1160     0.0075 C.ar         1    LIG   0.0000
  16 N16          5.4849     2.0633     0.5900 N.ar         1    LIG   0.0000
  17 C17          4.1435     2.0038     0.6055 C.ar         1    LIG   0.0000
  18 N18          3.3708     2.9996     1.2180 N.pl3        1    LIG   0.0000
  19 C19          3.9964     4.0924     1.8345 C.ar         1    LIG   0.0000
  20 C20          5.3847     4.1909     1.8344 C.ar         1    LIG   0.0000
  21 C21          5.9867     5.2854     2.4460 C.ar         1    LIG   0.0000
  22 C22          5.2312     6.2840     3.0491 C.ar         1    LIG   0.0000
  23 C23          3.8638     6.1862     3.0453 C.ar         1    LIG   0.0000
  24 C24          3.2482     5.0914     2.4479 C.ar         1    LIG   0.0000
  25 O25          3.3796     7.2695     3.6882 O.3          1    LIG   0.0000
  26 C26          4.4394     7.7784     4.4719 C.3          1    LIG   0.0000
  27 O27          5.5575     7.4213     3.6968 O.3          1    LIG   0.0000
  28 N28          1.2885     1.8606     0.0106 N.2          1    LIG   0.0000
  29 H           -2.0103     1.7340     0.0204 H            1    LIG   0.0000
  30 H           -1.1921     2.8832     0.8430 H            1    LIG   0.0000
  31 H           -1.1975     2.8956    -0.7899 H            1    LIG   0.0000
  32 H           -0.7175    -0.5925    -0.0036 H            1    LIG   0.0000
  33 H            1.1853    -2.3811    -0.0240 H            1    LIG   0.0000
  34 H            2.4984    -1.8563    -0.8406 H            1    LIG   0.0000
  35 H            2.5043    -1.8705     0.7923 H            1    LIG   0.0000
  36 H            5.9165    -1.7280    -1.6458 H            1    LIG   0.0000
  37 H            9.3907     0.2630    -0.6090 H            1    LIG   0.0000
  38 H            8.0807     1.9621     0.4348 H            1    LIG   0.0000
  39 H            2.3732     2.9307     1.2154 H            1    LIG   0.0000
  40 H            5.9424     3.4836     1.4000 H            1    LIG   0.0000
  41 H            6.9842     5.3554     2.4519 H            1    LIG   0.0000
  42 H            2.2508     5.0214     2.4597 H            1    LIG   0.0000
  43 H            4.4670     7.3467     5.3735 H            1    LIG   0.0000
  44 H            4.3709     8.7702     4.5791 H            1    LIG   0.0000
@<TRIPOS>BOND
   1        1        2 1
   2        2        3 1
   3        3        4 2
   4        4        5 1
   5        4        6 1
   6        6        7 1
   7        7        8 ar
   8        8        9 ar
   9        9       10 ar
  10       10       11 ar
  11       11       12 1
  12       11       13 ar
  13       13       14 ar
  14       14       15 ar
  15       15        9 ar
  16       15       16 ar
  17       16       17 ar
  18       17        7 ar
  19       17       18 1
  20       18       19 1
  21       19       20 ar
  22       20       21 ar
  23       21       22 ar
  24       22       23 ar
  25       23       24 ar
  26       24       19 ar
  27       23       25 1
  28       25       26 1
  29       26       27 1
  30       27       22 1
  31        6       28 1
  32       28        2 2
  33        1       29 1
  34        1       30 1
  35        1       31 1
  36        3       32 1
  37        5       33 1
  38        5       34 1
  39        5       35 1
  40       10       36 1
  41       13       37 1
  42       14       38 1
  43       18       39 1
  44       20       40 1
  45       21       41 1
  46       24       42 1
  47       26       43 1
  48       26       44 1

@<TRIPOS>MOLECULE

  44   48
SMALL
USER_CHARGES
@<TRIPOS>ATOM
   1 C1          -1.1943     2.3120     0.0221 C.3          1    LIG   0.0000
   2 C2           0.0470     1.4359     0.0114 C.2          1    LIG   0.0000
   3 C3           0.0680     0.0263    -0.0004 C.2          1    LIG   0.0000
   4 C4           1.3842    -0.3113    -0.0066 C.2          1    LIG   0.0000
   5 C5           1.9407    -1.7258    -0.0209 C.3          1    LIG   0.0000
   6 N6           2.1113     0.8397     0.0009 N.pl3        1    LIG   0.0000
   7 C7           3.5101     0.9241    -0.0029 C.ar         1    LIG   0.0000
   8 N8           4.2624    -0.0232    -0.5864 N.ar         1    LIG   0.0000
   9 C9           5.6031     0.0362    -0.6013 C.ar         1    LIG   0.0000
  10 C10          6.3717    -0.9522    -1.2088 C.ar         1    LIG   0.0000
  11 C11          7.7614    -0.8817    -1.2197 C.ar         1    LIG   0.0000
  12 Cl12         8.7401    -2.1491    -1.9979 Cl           1    LIG   0.0000
  13 C13          8.3928     0.1981    -0.6103 C.ar         1    LIG   0.0000
  14 C14          7.6254     1.1867    -0.0026 C.ar         1    LIG   0.0000
  15 C15          6.2358     1.1160     0.0075 C.ar         1    LIG   0.0000
  16 N16          5.4849     2.0633     0.5900 N.ar         1    LIG   0.0000
  17 C17          4.1435     2.0038     0.6055 C.ar         1    LIG   0.0000
  18 N18          3.3708     2.9996     1.2180 N.pl3        1    LIG   0.0000
  19 C19          3.9964     4.0924     1.8345 C.ar         1    LIG   0.0000
  20 C20          3.2295     5.0793     2.4467 C.ar         1    LIG   0.0000
  21 C21          3.8687     6.1527     3.0580 C.ar         1    LIG   0.0000
  22 C22          5.2545     6.2554     3.0761 C.ar         1    LIG   0.0000
  23 C23          6.0079     5.2805     2.4749 C.ar         1    LIG   0.0000
  24 C24          5.3823     4.2073     1.8493 C.ar         1    LIG   0.0000
  25 O25          7.3051     5.6174     2.6330 O.3          1    LIG   0.0000
  26 C26          7.3288     7.0013     2.9170 C.3          1    LIG   0.0000
  27 O27          6.1035     7.1710     3.5864 O.3          1    LIG   0.0000
  28 N28          1.2885     1.8606     0.0106 N.2          1    LIG   0.0000
  29 H           -2.0103     1.7340     0.0204 H            1    LIG   0.0000
  30 H           -1.1921     2.8832     0.8430 H            1    LIG   0.0000
  31 H           -1.1975     2.8956    -0.7899 H            1    LIG   0.0000
  32 H           -0.7175    -0.5925    -0.0036 H            1    LIG   0.0000
  33 H            1.1853    -2.3811    -0.0240 H            1    LIG   0.0000
  34 H            2.4984    -1.8563    -0.8406 H            1    LIG   0.0000
  35 H            2.5043    -1.8705     0.7923 H            1    LIG   0.0000
  36 H            5.9165    -1.7280    -1.6458 H            1    LIG   0.0000
  37 H            9.3907     0.2630    -0.6090 H            1    LIG   0.0000
  38 H            8.0807     1.9621     0.4348 H            1    LIG   0.0000
  39 H            2.3732     2.9307     1.2154 H            1    LIG   0.0000
  40 H            2.2315     5.0173     2.4472 H            1    LIG   0.0000
  41 H            3.3194     6.8658     3.4938 H            1    LIG   0.0000
  42 H            5.9385     3.5065     1.4027 H            1    LIG   0.0000
  43 H            7.3658     7.5456     2.0789 H            1    LIG   0.0000
  44 H            8.1021     7.2405     3.5042 H            1    LIG   0.0000
@<TRIPOS>BOND
   1        1        2 1
   2        2        3 1
   3        3        4 2
   4        4        5 1
   5        4        6 1
   6        6        7 1
   7        7        8 ar
   8        8        9 ar
   9        9       10 ar
  10       10       11 ar
  11       11       12 1
  12       11       13 ar
  13       13       14 ar
  14       14       15 ar
  15       15        9 ar
  16       15       16 ar
  17       16       17 ar
  18       17        7 ar
  19       17       18 1
  20       18       19 1
  21       19       20 ar
  22       20       21 ar
  23       21       22 ar
  24       22       23 ar
  25       23       24 ar
  26       24       19 ar
  27       23       25 1
  28       25       26 1
  29       26       27 1
  30       27       22 1
  31        6       28 1
  32       28        2 2
  33        1       29 1
  34        1       30 1
  35        1       31 1
  36        3       32 1
  37        5       33 1
  38        5       34 1
  39        5       35 1
  40       10       36 1
  41       13       37 1
  42       14       38 1
  43       18       39 1
  44       20       40 1
  45       21       41 1
  46       24       42 1
  47       26       43 1
  48       26       44 1

@<TRIPOS>MOLECULE

  44   48
SMALL
USER_CHARGES
@<TRIPOS>ATOM
   1 C1          -1.1943     2.3120     0.0221 C.3          1    LIG   0.0000
   2 C2           0.0470     1.4359     0.0114 C.2          1    LIG   0.0000
   3 C3           0.0680     0.0263    -0.0004 C.2          1    LIG   0.0000
   4 C4           1.3842    -0.3113    -0.0066 C.2          1    LIG   0.0000
   5 C5           1.9407    -1.7258    -0.0209 C.3          1    LIG   0.0000
   6 N6           2.1113     0.8397     0.0009 N.pl3        1    LIG   0.0000
   7 C7           3.5101     0.9241    -0.0029 C.ar         1    LIG   0.0000
   8 N8           4.2660    -0.0312     0.5625 N.ar         1    LIG   0.0000
   9 C9           5.6067     0.0291     0.5718 C.ar         1    LIG   0.0000
  10 C10          6.3790    -0.9671     1.1616 C.ar         1    LIG   0.0000
  11 C11          7.7687    -0.8961     1.1658 C.ar         1    LIG   0.0000
  12 Cl12         8.7521    -2.1730     1.9221 Cl           1    LIG   0.0000
  13 C13          8.3963     0.1930     0.5691 C.ar         1    LIG   0.0000
  14 C14          7.6252     1.1894    -0.0208 C.ar         1    LIG   0.0000
  15 C15          6.2356     1.1177    -0.0252 C.ar         1    LIG   0.0000
  16 N16          5.4812     2.0723    -0.5910 N.ar         1    LIG   0.0000
  17 C17          4.1397     2.0124    -0.6000 C.ar         1    LIG   0.0000
  18 N18          3.3633     3.0164    -1.1939 N.pl3        1    LIG   0.0000
  19 C19          3.9850     4.1179    -1.7987 C.ar         1    LIG   0.0000
  20 C20          5.3735     4.2123    -1.8133 C.ar         1    LIG   0.0000
  21 C21          5.9720     5.3097    -2.4232 C.ar         1    LIG   0.0000
  22 C22          5.2133     6.3076    -3.0233 C.ar         1    LIG   0.0000
  23 C23          3.8459     6.2109    -3.0102 C.ar         1    LIG   0.0000
  24 C24          3.2331     5.1252    -2.3936 C.ar         1    LIG   0.0000
  25 O25          3.3582     7.2945    -3.6498 O.3          1    LIG   0.0000
  26 C26          4.3883     8.2616    -3.6441 C.3          1    LIG   0.0000
  27 O27          5.5359     7.4487    -3.6661 O.3          1    LIG   0.0000
  28 N28          1.2885     1.8606     0.0106 N.2          1    LIG   0.0000
  29 H           -2.0103     1.7340     0.0204 H            1    LIG   0.0000
  30 H           -1.1921     2.8832     0.8430 H            1    LIG   0.0000
  31 H           -1.1975     2.8956    -0.7899 H            1    LIG   0.0000
  32 H           -0.7175    -0.5925    -0.0036 H            1    LIG   0.0000
  33 H            1.1853    -2.3811    -0.0240 H            1    LIG   0.0000
  34 H            2.4984    -1.8563    -0.8406 H            1    LIG   0.0000
  35 H            2.5043    -1.8705     0.7923 H            1    LIG   0.0000
  36 H            5.9266    -1.7489     1.5907 H            1    LIG   0.0000
  37 H            9.3941     0.2590     0.5643 H            1    LIG   0.0000
  38 H            8.0778     1.9714    -0.4493 H            1    LIG   0.0000
  39 H            2.3657     2.9473    -1.1863 H            1    LIG   0.0000
  40 H            5.9338     3.5000    -1.3907 H            1    LIG   0.0000
  41 H            6.9694     5.3822    -2.4300 H            1    LIG   0.0000
  42 H            2.2348     5.0680    -2.3779 H            1    LIG   0.0000
  43 H            4.3556     8.8253    -2.8187 H            1    LIG   0.0000
  44 H            4.3417     8.8498    -4.4514 H            1    LIG   0.0000
@<TRIPOS>BOND
   1        1        2 1
   2        2        3 1
   3        3        4 2
   4        4        5 1
   5        4        6 1
   6        6        7 1
   7        7        8 ar
   8        8        9 ar
   9        9       10 ar
  10       10       11 ar
  11       11       12 1
  12       11       13 ar
  13       13       14 ar
  14       14       15 ar
  15       15        9 ar
  16       15       16 ar
  17       16       17 ar
  18       17        7 ar
  19       17       18 1
  20       18       19 1
  21       19       20 ar
  22       20       21 ar
  23       21       22 ar
  24       22       23 ar
  25       23       24 ar
  26       24       19 ar
  27       23       25 1
  28       25       26 1
  29       26       27 1
  30       27       22 1
  31        6       28 1
  32       28        2 2
  33        1       29 1
  34        1       30 1
  35        1       31 1
  36        3       32 1
  37        5       33 1
  38        5       34 1
  39        5       35 1
  40       10       36 1
  41       13       37 1
  42       14       38 1
  43       18       39 1
  44       20       40 1
  45       21       41 1
  46       24       42 1
  47       26       43 1
  48       26       44 1

@<TRIPOS>MOLECULE

  44   48
SMALL
USER_CHARGES
@<TRIPOS>ATOM
   1 C1          -1.1943     2.3120     0.0221 C.3          1    LIG   0.0000
   2 C2           0.0470     1.4359     0.0114 C.2          1    LIG   0.0000
   3 C3           0.0680     0.0263    -0.0004 C.2          1    LIG   0.0000
   4 C4           1.3842    -0.3113    -0.0066 C.2          1    LIG   0.0000
   5 C5           1.9407    -1.7258    -0.0209 C.3          1    LIG   0.0000
   6 N6           2.1113     0.8397     0.0009 N.pl3        1    LIG   0.0000
   7 C7           3.5101     0.9241    -0.0029 C.ar         1    LIG   0.0000
   8 N8           4.2660    -0.0312     0.5625 N.ar         1    LIG   0.0000
   9 C9           5.6067     0.0291     0.5718 C.ar         1    LIG   0.0000
  10 C10          6.3790    -0.9671     1.1616 C.ar         1    LIG   0.0000
  11 C11          7.7687    -0.8961     1.1658 C.ar         1    LIG   0.0000
  12 Cl12         8.7521    -2.1730     1.9221 Cl           1    LIG   0.0000
  13 C13          8.3963     0.1930     0.5691 C.ar         1    LIG   0.0000
  14 C14          7.6252     1.1894    -0.0208 C.ar         1    LIG   0.0000
  15 C15          6.2356     1.1177    -0.0252 C.ar         1    LIG   0.0000
  16 N16          5.4812     2.0723    -0.5910 N.ar         1    LIG   0.0000
  17 C17          4.1397     2.0124    -0.6000 C.ar         1    LIG   0.0000
  18 N18          3.3633     3.0164    -1.1939 N.pl3        1    LIG   0.0000
  19 C19          3.9850     4.1179    -1.7987 C.ar         1    LIG   0.0000
  20 C20          3.2141     5.1175    -2.3846 C.ar         1    LIG   0.0000
  21 C21          3.8491     6.2053    -2.9746 C.ar         1    LIG   0.0000
  22 C22          5.2344     6.3174    -2.9839 C.ar         1    LIG   0.0000
  23 C23          5.9915     5.3329    -2.4034 C.ar         1    LIG   0.0000
  24 C24          5.3708     4.2334    -1.8202 C.ar         1    LIG   0.0000
  25 O25          7.2872     5.6806    -2.5496 O.3          1    LIG   0.0000
  26 C26          7.3341     6.6213    -3.6029 C.3          1    LIG   0.0000
  27 O27          6.0799     7.2454    -3.4771 O.3          1    LIG   0.0000
  28 N28          1.2885     1.8606     0.0106 N.2          1    LIG   0.0000
  29 H           -2.0103     1.7340     0.0204 H            1    LIG   0.0000
  30 H           -1.1921     2.8832     0.8430 H            1    LIG   0.0000
  31 H           -1.1975     2.8956    -0.7899 H            1    LIG   0.0000
  32 H           -0.7175    -0.5925    -0.0036 H            1    LIG   0.0000
  33 H            1.1853    -2.3811    -0.0240 H            1    LIG   0.0000
  34 H            2.4984    -1.8563    -0.8406 H            1    LIG   0.0000
  35 H            2.5043    -1.8705     0.7923 H            1    LIG   0.0000
  36 H            5.9266    -1.7489     1.5907 H            1    LIG   0.0000
  37 H            9.3941     0.2590     0.5643 H            1    LIG   0.0000
  38 H            8.0778     1.9714    -0.4493 H            1    LIG   0.0000
  39 H            2.3657     2.9473    -1.1863 H            1    LIG   0.0000
  40 H            2.2161     5.0545    -2.3816 H            1    LIG   0.0000
  41 H            3.2973     6.9219    -3.4010 H            1    LIG   0.0000
  42 H            5.9304     3.5136    -1.4093 H            1    LIG   0.0000
  43 H            7.4309     6.1713    -4.4906 H            1    LIG   0.0000
  44 H            8.0812     7.2740    -3.4768 H            1    LIG   0.0000
@<TRIPOS>BOND
   1        1        2 1
   2        2        3 1
   3        3        4 2
   4        4        5 1
   5        4        6 1
   6        6        7 1
   7        7        8 ar
   8        8        9 ar
   9        9       10 ar
  10       10       11 ar
  11       11       12 1
  12       11       13 ar
  13       13       14 ar
  14       14       15 ar
  15       15        9 ar
  16       15       16 ar
  17       16       17 ar
  18       17        7 ar
  19       17       18 1
  20       18       19 1
  21       19       20 ar
  22       20       21 ar
  23       21       22 ar
  24       22       23 ar
  25       23       24 ar
  26       24       19 ar
  27       23       25 1
  28       25       26 1
  29       26       27 1
  30       27       22 1
  31        6       28 1
  32       28        2 2
  33        1       29 1
  34        1       30 1
  35        1       31 1
  36        3       32 1
  37        5       33 1
  38        5       34 1
  39        5       35 1
  40       10       36 1
  41       13       37 1
  42       14       38 1
  43       18       39 1
  44       20       40 1
  45       21       41 1
  46       24       42 1
  47       26       43 1
  48       26       44 1

@<TRIPOS>MOLECULE

  44   48
SMALL
USER_CHARGES
@<TRIPOS>ATOM
   1 C1          -1.1943     2.3120     0.0221 C.3          1    LIG   0.0000
   2 C2           0.0470     1.4359     0.0114 C.2          1    LIG   0.0000
   3 C3           0.0680     0.0263    -0.0004 C.2          1    LIG   0.0000
   4 C4           1.3842    -0.3113    -0.0066 C.2          1    LIG   0.0000
   5 C5           1.9407    -1.7258    -0.0209 C.3          1    LIG   0.0000
   6 N6           2.1113     0.8397     0.0009 N.pl3        1    LIG   0.0000
   7 C7           3.5101     0.9241    -0.0029 C.ar         1    LIG   0.0000
   8 N8           4.2007     0.9740    -1.1537 N.ar         1    LIG   0.0000
   9 C9           5.5401     1.0538    -1.1816 C.ar         1    LIG   0.0000
  10 C10          6.2444     1.1043    -2.3808 C.ar         1    LIG   0.0000
  11 C11          7.6334     1.1877    -2.3996 C.ar         1    LIG   0.0000
  12 Cl12         8.5296     1.2516    -3.9366 Cl           1    LIG   0.0000
  13 C13          8.3296     1.2202    -1.1954 C.ar         1    LIG   0.0000
  14 C14          7.6265     1.1697     0.0040 C.ar         1    LIG   0.0000
  15 C15          6.2376     1.0870     0.0224 C.ar         1    LIG   0.0000
  16 N16          5.5484     1.0379     1.1726 N.ar         1    LIG   0.0000
  17 C17          4.2082     0.9574     1.2007 C.ar         1    LIG   0.0000
  18 N18          3.5003     0.9062     2.4090 N.pl3        1    LIG   0.0000
  19 C19          4.1916     0.9390     3.6284 C.ar         1    LIG   0.0000
  20 C20          5.5805     1.0269     3.6392 C.ar         1    LIG   0.0000
  21 C21          6.2479     1.0641     4.8589 C.ar         1    LIG   0.0000
  22 C22          5.5568     1.0229     6.0639 C.ar         1    LIG   0.0000
  23 C23          4.1885     0.9392     6.0507 C.ar         1    LIG   0.0000
  24 C24          3.5083     0.8892     4.8386 C.ar         1    LIG   0.0000
  25 O25          3.7729     0.9136     7.3344 O.3          1    LIG   0.0000
  26 C26          4.8872     0.5208     8.1094 C.3          1    LIG   0.0000
  27 O27          5.9523     1.0427     7.3534 O.3          1    LIG   0.0000
  28 N28          1.2885     1.8606     0.0106 N.2          1    LIG   0.0000
  29 H           -2.0103     1.7340     0.0204 H            1    LIG   0.0000
  30 H           -1.1921     2.8832     0.8430 H            1    LIG   0.0000
  31 H           -1.1975     2.8956    -0.7899 H            1    LIG   0.0000
  32 H           -0.7175    -0.5925    -0.0036 H            1    LIG   0.0000
  33 H            1.1853    -2.3811    -0.0240 H            1    LIG   0.0000
  34 H            2.4984    -1.8563    -0.8406 H            1    LIG   0.0000
  35 H            2.5043    -1.8705     0.7923 H            1    LIG   0.0000
  36 H            5.7428     1.0802    -3.2455 H            1    LIG   0.0000
  37 H            9.3278     1.2793    -1.1920 H            1    LIG   0.0000
  38 H            8.1283     1.1932     0.8686 H            1    LIG   0.0000
  39 H            2.5022     0.8462     2.4016 H            1    LIG   0.0000
  40 H            6.0921     1.0630     2.7808 H            1    LIG   0.0000
  41 H            7.2462     1.1218     4.8689 H            1    LIG   0.0000
  42 H            2.5109     0.8162     4.8374 H            1    LIG   0.0000
  43 H            4.9465    -0.4745     8.1857 H            1    LIG   0.0000
  44 H            4.8564     0.9239     9.0240 H            1    LIG   0.0000
@<TRIPOS>BOND
   1        1        2 1
   2        2        3 1
   3        3        4 2
   4        4        5 1
   5        4        6 1
   6        6        7 1
   7        7        8 ar
   8        8        9 ar
   9        9       10 ar
  10       10       11 ar
  11       11       12 1
  12       11       13 ar
  13       13       14 ar
  14       14       15 ar
  15       15        9 ar
  16       15       16 ar
  17       16       17 ar
  18       17        7 ar
  19       17       18 1
  20       18       19 1
  21       19       20 ar
  22       20       21 ar
  23       21       22 ar
  24       22       23 ar
  25       23       24 ar
  26       24       19 ar
  27       23       25 1
  28       25       26 1
  29       26       27 1
  30       27       22 1
  31        6       28 1
  32       28        2 2
  33        1       29 1
  34        1       30 1
  35        1       31 1
  36        3       32 1
  37        5       33 1
  38        5       34 1
  39        5       35 1
  40       10       36 1
  41       13       37 1
  42       14       38 1
  43       18       39 1
  44       20       40 1
  45       21       41 1
  46       24       42 1
  47       26       43 1
  48       26       44 1

@<TRIPOS>MOLECULE

  44   48
SMALL
USER_CHARGES
@<TRIPOS>ATOM
   1 C1          -1.1943     2.3120     0.0221 C.3          1    LIG   0.0000
   2 C2           0.0470     1.4359     0.0114 C.2          1    LIG   0.0000
   3 C3           0.0680     0.0263    -0.0004 C.2          1    LIG   0.0000
   4 C4           1.3842    -0.3113    -0.0066 C.2          1    LIG   0.0000
   5 C5           1.9407    -1.7258    -0.0209 C.3          1    LIG   0.0000
   6 N6           2.1113     0.8397     0.0009 N.pl3        1    LIG   0.0000
   7 C7           3.5101     0.9241    -0.0029 C.ar         1    LIG   0.0000
   8 N8           4.2007     0.9740    -1.1537 N.ar         1    LIG   0.0000
   9 C9           5.5401     1.0538    -1.1816 C.ar         1    LIG   0.0000
  10 C10          6.2444     1.1043    -2.3808 C.ar         1    LIG   0.0000
  11 C11          7.6334     1.1877    -2.3996 C.ar         1    LIG   0.0000
  12 Cl12         8.5296     1.2516    -3.9366 Cl           1    LIG   0.0000
  13 C13          8.3296     1.2202    -1.1954 C.ar         1    LIG   0.0000
  14 C14          7.6265     1.1697     0.0040 C.ar         1    LIG   0.0000
  15 C15          6.2376     1.0870     0.0224 C.ar         1    LIG   0.0000
  16 N16          5.5484     1.0379     1.1726 N.ar         1    LIG   0.0000
  17 C17          4.2082     0.9574     1.2007 C.ar         1    LIG   0.0000
  18 N18          3.5003     0.9062     2.4090 N.pl3        1    LIG   0.0000
  19 C19          4.1916     0.9390     3.6284 C.ar         1    LIG   0.0000
  20 C20          3.4891     0.8836     4.8286 C.ar         1    LIG   0.0000
  21 C21          4.1930     0.9115     6.0279 C.ar         1    LIG   0.0000
  22 C22          5.5805     0.9858     6.0515 C.ar         1    LIG   0.0000
  23 C23          6.2704     1.0373     4.8679 C.ar         1    LIG   0.0000
  24 C24          5.5794     1.0222     3.6610 C.ar         1    LIG   0.0000
  25 O25          7.5842     1.1055     5.1687 O.3          1    LIG   0.0000
  26 C26          7.6672     1.5552     6.5057 C.3          1    LIG   0.0000
  27 O27          6.4835     1.0276     7.0526 O.3          1    LIG   0.0000
  28 N28          1.2885     1.8606     0.0106 N.2          1    LIG   0.0000
  29 H           -2.0103     1.7340     0.0204 H            1    LIG   0.0000
  30 H           -1.1921     2.8832     0.8430 H            1    LIG   0.0000
  31 H           -1.1975     2.8956    -0.7899 H            1    LIG   0.0000
  32 H           -0.7175    -0.5925    -0.0036 H            1    LIG   0.0000
  33 H            1.1853    -2.3811    -0.0240 H            1    LIG   0.0000
  34 H            2.4984    -1.8563    -0.8406 H            1    LIG   0.0000
  35 H            2.5043    -1.8705     0.7923 H            1    LIG   0.0000
  36 H            5.7428     1.0802    -3.2455 H            1    LIG   0.0000
  37 H            9.3278     1.2793    -1.1920 H            1    LIG   0.0000
  38 H            8.1283     1.1932     0.8686 H            1    LIG   0.0000
  39 H            2.5022     0.8462     2.4016 H            1    LIG   0.0000
  40 H            2.4909     0.8245     4.8286 H            1    LIG   0.0000
  41 H            3.6899     0.8774     6.8914 H            1    LIG   0.0000
  42 H            6.0891     1.0720     2.8021 H            1    LIG   0.0000
  43 H            7.6791     2.5539     6.5552 H            1    LIG   0.0000
  44 H            8.4766     1.1890     6.9647 H            1    LIG   0.0000
@<TRIPOS>BOND
   1        1        2 1
   2        2        3 1
   3        3        4 2
   4        4        5 1
   5        4        6 1
   6        6        7 1
   7        7        8 ar
   8        8        9 ar
   9        9       10 ar
  10       10       11 ar
  11       11       12 1
  12       11       13 ar
  13       13       14 ar
  14       14       15 ar
  15       15        9 ar
  16       15       16 ar
  17       16       17 ar
  18       17        7 ar
  19       17       18 1
  20       18       19 1
  21       19       20 ar
  22       20       21 ar
  23       21       22 ar
  24       22       23 ar
  25       23       24 ar
  26       24       19 ar
  27       23       25 1
  28       25       26 1
  29       26       27 1
  30       27       22 1
  31        6       28 1
  32       28        2 2
  33        1       29 1
  34        1       30 1
  35        1       31 1
  36        3       32 1
  37        5       33 1
  38        5       34 1
  39        5       35 1
  40       10       36 1
  41       13       37 1
  42       14       38 1
  43       18       39 1
  44       20       40 1
  45       21       41 1
  46       24       42 1
  47       26       43 1
  48       26       44 1

@<TRIPOS>MOLECULE

  44   48
SMALL
USER_CHARGES
@<TRIPOS>ATOM
   1 C1          -1.1943     2.3120     0.0221 C.3          1    LIG   0.0000
   2 C2           0.0470     1.4359     0.0114 C.2          1    LIG   0.0000
   3 C3           0.0680     0.0263    -0.0004 C.2          1    LIG   0.0000
   4 C4           1.3842    -0.3113    -0.0066 C.2          1    LIG   0.0000
   5 C5           1.9407    -1.7258    -0.0209 C.3          1    LIG   0.0000
   6 N6           2.1113     0.8397     0.0009 N.pl3        1    LIG   0.0000
   7 C7           3.5101     0.9241    -0.0029 C.ar         1    LIG   0.0000
   8 N8           4.2079     0.9579     1.1441 N.ar         1    LIG   0.0000
   9 C9           5.5473     1.0397     1.1647 C.ar         1    LIG   0.0000
  10 C10          6.2590     1.0746     2.3600 C.ar         1    LIG   0.0000
  11 C11          7.6480     1.1589     2.3714 C.ar         1    LIG   0.0000
  12 Cl12         8.5538     1.2037     3.9034 Cl           1    LIG   0.0000
  13 C13          8.3366     1.2100     1.1634 C.ar         1    LIG   0.0000
  14 C14          7.6260     1.1752    -0.0322 C.ar         1    LIG   0.0000
  15 C15          6.2372     1.0903    -0.0430 C.ar         1    LIG   0.0000
  16 N16          5.5409     1.0558    -1.1895 N.ar         1    LIG   0.0000
  17 C17          4.2007     0.9745    -1.2104 C.ar         1    LIG   0.0000
  18 N18          3.4852     0.9399    -2.4148 N.pl3        1    LIG   0.0000
  19 C19          4.1688     0.9900    -3.6379 C.ar         1    LIG   0.0000
  20 C20          5.5581     1.0697    -3.6562 C.ar         1    LIG   0.0000
  21 C21          6.2186     1.1126    -4.8795 C.ar         1    LIG   0.0000
  22 C22          5.5211     1.0700    -6.0808 C.ar         1    LIG   0.0000
  23 C23          4.1527     0.9886    -6.0602 C.ar         1    LIG   0.0000
  24 C24          3.4779     0.9569    -4.8444 C.ar         1    LIG   0.0000
  25 O25          3.7301     0.9637    -7.3416 O.3          1    LIG   0.0000
  26 C26          4.7849     1.4873    -8.1225 C.3          1    LIG   0.0000
  27 O27          5.9090     1.0975    -7.3724 O.3          1    LIG   0.0000
  28 N28          1.2885     1.8606     0.0106 N.2          1    LIG   0.0000
  29 H           -2.0103     1.7340     0.0204 H            1    LIG   0.0000
  30 H           -1.1921     2.8832     0.8430 H            1    LIG   0.0000
  31 H           -1.1975     2.8956    -0.7899 H            1    LIG   0.0000
  32 H           -0.7175    -0.5925    -0.0036 H            1    LIG   0.0000
  33 H            1.1853    -2.3811    -0.0240 H            1    LIG   0.0000
  34 H            2.4984    -1.8563    -0.8406 H            1    LIG   0.0000
  35 H            2.5043    -1.8705     0.7923 H            1    LIG   0.0000
  36 H            5.7628     1.0385     3.2275 H            1    LIG   0.0000
  37 H            9.3347     1.2713     1.1546 H            1    LIG   0.0000
  38 H            8.1224     1.2118    -0.8995 H            1    LIG   0.0000
  39 H            2.4872     0.8794    -2.4019 H            1    LIG   0.0000
  40 H            6.0750     1.0957    -2.8006 H            1    LIG   0.0000
  41 H            7.2165     1.1754    -4.8949 H            1    LIG   0.0000
  42 H            2.4791     0.9094    -4.8377 H            1    LIG   0.0000
  43 H            4.7237     2.4825    -8.1987 H            1    LIG   0.0000
  44 H            4.7979     1.0831    -9.0370 H            1    LIG   0.0000
@<TRIPOS>BOND
   1        1        2 1
   2        2        3 1
   3        3        4 2
   4        4        5 1
   5        4        6 1
   6        6        7 1
   7        7        8 ar
   8        8        9 ar
   9        9       10 ar
  10       10       11 ar
  11       11       12 1
  12       11       13 ar
  13       13       14 ar
  14       14       15 ar
  15       15        9 ar
  16       15       16 ar
  17       16       17 ar
  18       17        7 ar
  19       17       18 1
  20       18       19 1
  21       19       20 ar
  22       20       21 ar
  23       21       22 ar
  24       22       23 ar
  25       23       24 ar
  26       24       19 ar
  27       23       25 1
  28       25       26 1
  29       26       27 1
  30       27       22 1
  31        6       28 1
  32       28        2 2
  33        1       29 1
  34        1       30 1
  35        1       31 1
  36        3       32 1
  37        5       33 1
  38        5       34 1
  39        5       35 1
  40       10       36 1
  41       13       37 1
  42       14       38 1
  43       18       39 1
  44       20       40 1
  45       21       41 1
  46       24       42 1
  47       26       43 1
  48       26       44 1

@<TRIPOS>MOLECULE

  44   48
SMALL
USER_CHARGES
@<TRIPOS>ATOM
   1 C1          -1.1943     2.3120     0.0221 C.3          1    LIG   0.0000
   2 C2           0.0470     1.4359     0.0114 C.2          1    LIG   0.0000
   3 C3           0.0680     0.0263    -0.0004 C.2          1    LIG   0.0000
   4 C4           1.3842    -0.3113    -0.0066 C.2          1    LIG   0.0000
   5 C5           1.9407    -1.7258    -0.0209 C.3          1    LIG   0.0000
   6 N6           2.1113     0.8397     0.0009 N.pl3        1    LIG   0.0000
   7 C7           3.5101     0.9241    -0.0029 C.ar         1    LIG   0.0000
   8 N8           4.2079     0.9579     1.1441 N.ar         1    LIG   0.0000
   9 C9           5.5473     1.0397     1.1647 C.ar         1    LIG   0.0000
  10 C10          6.2590     1.0746     2.3600 C.ar         1    LIG   0.0000
  11 C11          7.6480     1.1589     2.3714 C.ar         1    LIG   0.0000
  12 Cl12         8.5538     1.2037     3.9034 Cl           1    LIG   0.0000
  13 C13          8.3366     1.2100     1.1634 C.ar         1    LIG   0.0000
  14 C14          7.6260     1.1752    -0.0322 C.ar         1    LIG   0.0000
  15 C15          6.2372     1.0903    -0.0430 C.ar         1    LIG   0.0000
  16 N16          5.5409     1.0558    -1.1895 N.ar         1    LIG   0.0000
  17 C17          4.2007     0.9745    -1.2104 C.ar         1    LIG   0.0000
  18 N18          3.4852     0.9399    -2.4148 N.pl3        1    LIG   0.0000
  19 C19          4.1688     0.9900    -3.6379 C.ar         1    LIG   0.0000
  20 C20          3.4583     0.9601    -4.8342 C.ar         1    LIG   0.0000
  21 C21          4.1539     1.0167    -6.0373 C.ar         1    LIG   0.0000
  22 C22          5.5402     1.1097    -6.0685 C.ar         1    LIG   0.0000
  23 C23          6.2376     1.1420    -4.8887 C.ar         1    LIG   0.0000
  24 C24          5.5564     1.0742    -3.6780 C.ar         1    LIG   0.0000
  25 O25          7.5485     1.2321    -5.1966 O.3          1    LIG   0.0000
  26 C26          7.6777     0.7952    -6.5341 C.3          1    LIG   0.0000
  27 O27          6.4363     1.1764    -7.0745 O.3          1    LIG   0.0000
  28 N28          1.2885     1.8606     0.0106 N.2          1    LIG   0.0000
  29 H           -2.0103     1.7340     0.0204 H            1    LIG   0.0000
  30 H           -1.1921     2.8832     0.8430 H            1    LIG   0.0000
  31 H           -1.1975     2.8956    -0.7899 H            1    LIG   0.0000
  32 H           -0.7175    -0.5925    -0.0036 H            1    LIG   0.0000
  33 H            1.1853    -2.3811    -0.0240 H            1    LIG   0.0000
  34 H            2.4984    -1.8563    -0.8406 H            1    LIG   0.0000
  35 H            2.5043    -1.8705     0.7923 H            1    LIG   0.0000
  36 H            5.7628     1.0385     3.2275 H            1    LIG   0.0000
  37 H            9.3347     1.2713     1.1546 H            1    LIG   0.0000
  38 H            8.1224     1.2118    -0.8995 H            1    LIG   0.0000
  39 H            2.4872     0.8794    -2.4019 H            1    LIG   0.0000
  40 H            2.4602     0.8988    -4.8289 H            1    LIG   0.0000
  41 H            3.6457     0.9898    -6.8982 H            1    LIG   0.0000
  42 H            6.0730     1.0863    -2.8219 H            1    LIG   0.0000
  43 H            7.8093    -0.1948    -6.5840 H            1    LIG   0.0000
  44 H            8.4347     1.2559    -6.9974 H            1    LIG   0.0000
@<TRIPOS>BOND
   1        1        2 1
   2        2        3 1
   3        3        4 2
   4        4        5 1
   5        4        6 1
   6        6        7 1
   7        7        8 ar
   8        8        9 ar
   9        9       10 ar
  10       10       11 ar
  11       11       12 1
  12       11       13 ar
  13       13       14 ar
  14       14       15 ar
  15       15        9 ar
  16       15       16 ar
  17       16       17 ar
  18       17        7 ar
  19       17       18 1
  20       18       19 1
  21       19       20 ar
  22       20       21 ar
  23       21       22 ar
  24       22       23 ar
  25       23       24 ar
  26       24       19 ar
  27       23       25 1
  28       25       26 1
  29       26       27 1
  30       27       22 1
  31        6       28 1
  32       28        2 2
  33        1       29 1
  34        1       30 1
  35        1       31 1
  36        3       32 1
  37        5       33 1
  38        5       34 1
  39        5       35 1
  40       10       36 1
  41       13       37 1
  42       14       38 1
  43       18       39 1
  44       20       40 1
  45       21       41 1
  46       24       42 1
  47       26       43 1
  48       26       44 1

@<TRIPOS>MOLECULE

  44   48
SMALL
USER_CHARGES
@<TRIPOS>ATOM
   1 C1          -1.1943     2.3120     0.0221 C.3          1    LIG   0.0000
   2 C2           0.0470     1.4359     0.0114 C.2          1    LIG   0.0000
   3 C3           0.0680     0.0263    -0.0004 C.2          1    LIG   0.0000
   4 C4           1.3842    -0.3113    -0.0066 C.2          1    LIG   0.0000
   5 C5           1.9407    -1.7258    -0.0209 C.3          1    LIG   0.0000
   6 N6           2.1113     0.8397     0.0009 N.pl3        1    LIG   0.0000
   7 C7           3.5101     0.9241    -0.0029 C.ar         1    LIG   0.0000
   8 N8           4.1729     1.5324     0.9943 N.ar         1    LIG   0.0000
   9 C9           5.5115     1.6261     1.0112 C.ar         1    LIG   0.0000
  10 C10          6.1867     2.2597     2.0501 C.ar         1    LIG   0.0000
  11 C11          7.5752     2.3514     2.0592 C.ar         1    LIG   0.0000
  12 Cl12         8.4341     3.1634     3.3906 Cl           1    LIG   0.0000
  13 C13          8.3006     1.7993     1.0080 C.ar         1    LIG   0.0000
  14 C14          7.6266     1.1658    -0.0311 C.ar         1    LIG   0.0000
  15 C15          6.2382     1.0737    -0.0395 C.ar         1    LIG   0.0000
  16 N16          5.5769     0.4651    -1.0358 N.ar         1    LIG   0.0000
  17 C17          4.2375     0.3717    -1.0532 C.ar         1    LIG   0.0000
  18 N18          3.5589    -0.2662    -2.1003 N.pl3        1    LIG   0.0000
  19 C19          4.2789    -0.8261    -3.1630 C.ar         1    LIG   0.0000
  20 C20          5.6676    -0.7424    -3.1802 C.ar         1    LIG   0.0000
  21 C21          6.3582    -1.3004    -4.2505 C.ar         1    LIG   0.0000
  22 C22          5.7015    -1.9353    -5.3035 C.ar         1    LIG   0.0000
  23 C23          4.3207    -2.0203    -5.2792 C.ar         1    LIG   0.0000
  24 C24          3.6226    -1.4634    -4.2117 C.ar         1    LIG   0.0000
  25 O25          3.9259    -2.6534    -6.4011 O.3          1    LIG   0.0000
  26 C26          5.0678    -3.3047    -6.9203 C.3          1    LIG   0.0000
  27 O27          6.1282    -2.5042    -6.4481 O.3          1    LIG   0.0000
  28 N28          1.2885     1.8606     0.0106 N.2          1    LIG   0.0000
  29 H           -2.0103     1.7340     0.0204 H            1    LIG   0.0000
  30 H           -1.1921     2.8832     0.8430 H            1    LIG   0.0000
  31 H           -1.1975     2.8956    -0.7899 H            1    LIG   0.0000
  32 H           -0.7175    -0.5925    -0.0036 H            1    LIG   0.0000
  33 H            1.1853    -2.3811    -0.0240 H            1    LIG   0.0000
  34 H            2.4984    -1.8563    -0.8406 H            1    LIG   0.0000
  35 H            2.5043    -1.8705     0.7923 H            1    LIG   0.0000
  36 H            5.6641     2.6566     2.8046 H            1    LIG   0.0000
  37 H            9.2989     1.8574     0.9995 H            1    LIG   0.0000
  38 H            8.1494     0.7693    -0.7858 H            1    LIG   0.0000
  39 H            2.5605    -0.3215    -2.0887 H            1    LIG   0.0000
  40 H            6.1599    -0.2895    -2.4369 H            1    LIG   0.0000
  41 H            7.3566    -1.2444    -4.2652 H            1    LIG   0.0000
  42 H            2.6245    -1.5228    -4.1979 H            1    LIG   0.0000
  43 H            5.0482    -3.3230    -7.9199 H            1    LIG   0.0000
  44 H            5.1391    -4.2390    -6.5711 H            1    LIG   0.0000
@<TRIPOS>BOND
   1        1        2 1
   2        2        3 1
   3        3        4 2
   4        4        5 1
   5        4        6 1
   6        6        7 1
   7        7        8 ar
   8        8        9 ar
   9        9       10 ar
  10       10       11 ar
  11       11       12 1
  12       11       13 ar
  13       13       14 ar
  14       14       15 ar
  15       15        9 ar
  16       15       16 ar
  17       16       17 ar
  18       17        7 ar
  19       17       18 1
  20       18       19 1
  21       19       20 ar
  22       20       21 ar
  23       21       22 ar
  24       22       23 ar
  25       23       24 ar
  26       24       19 ar
  27       23       25 1
  28       25       26 1
  29       26       27 1
  30       27       22 1
  31        6       28 1
  32       28        2 2
  33        1       29 1
  34        1       30 1
  35        1       31 1
  36        3       32 1
  37        5       33 1
  38        5       34 1
  39        5       35 1
  40       10       36 1
  41       13       37 1
  42       14       38 1
  43       18       39 1
  44       20       40 1
  45       21       41 1
  46       24       42 1
  47       26       43 1
  48       26       44 1

@<TRIPOS>MOLECULE

  44   48
SMALL
USER_CHARGES
@<TRIPOS>ATOM
   1 C1          -1.1943     2.3120     0.0221 C.3          1    LIG   0.0000
   2 C2           0.0470     1.4359     0.0114 C.2          1    LIG   0.0000
   3 C3           0.0680     0.0263    -0.0004 C.2          1    LIG   0.0000
   4 C4           1.3842    -0.3113    -0.0066 C.2          1    LIG   0.0000
   5 C5           1.9407    -1.7258    -0.0209 C.3          1    LIG   0.0000
   6 N6           2.1113     0.8397     0.0009 N.pl3        1    LIG   0.0000
   7 C7           3.5101     0.9241    -0.0029 C.ar         1    LIG   0.0000
   8 N8           4.1729     1.5324     0.9943 N.ar         1    LIG   0.0000
   9 C9           5.5115     1.6261     1.0112 C.ar         1    LIG   0.0000
  10 C10          6.1867     2.2597     2.0501 C.ar         1    LIG   0.0000
  11 C11          7.5752     2.3514     2.0592 C.ar         1    LIG   0.0000
  12 Cl12         8.4341     3.1634     3.3906 Cl           1    LIG   0.0000
  13 C13          8.3006     1.7993     1.0080 C.ar         1    LIG   0.0000
  14 C14          7.6266     1.1658    -0.0311 C.ar         1    LIG   0.0000
  15 C15          6.2382     1.0737    -0.0395 C.ar         1    LIG   0.0000
  16 N16          5.5769     0.4651    -1.0358 N.ar         1    LIG   0.0000
  17 C17          4.2375     0.3717    -1.0532 C.ar         1    LIG   0.0000
  18 N18          3.5589    -0.2662    -2.1003 N.pl3        1    LIG   0.0000
  19 C19          4.2789    -0.8261    -3.1630 C.ar         1    LIG   0.0000
  20 C20          3.6033    -1.4643    -4.1985 C.ar         1    LIG   0.0000
  21 C21          4.3423    -2.0180    -5.2382 C.ar         1    LIG   0.0000
  22 C22          5.7346    -1.9550    -5.2707 C.ar         1    LIG   0.0000
  23 C23          6.4013    -1.3148    -4.2412 C.ar         1    LIG   0.0000
  24 C24          5.6685    -0.7590    -3.1967 C.ar         1    LIG   0.0000
  25 O25          7.7230    -1.4025    -4.4874 O.3          1    LIG   0.0000
  26 C26          7.8577    -1.7439    -5.8523 C.3          1    LIG   0.0000
  27 O27          6.6604    -2.4379    -6.1224 O.3          1    LIG   0.0000
  28 N28          1.2885     1.8606     0.0106 N.2          1    LIG   0.0000
  29 H           -2.0103     1.7340     0.0204 H            1    LIG   0.0000
  30 H           -1.1921     2.8832     0.8430 H            1    LIG   0.0000
  31 H           -1.1975     2.8956    -0.7899 H            1    LIG   0.0000
  32 H           -0.7175    -0.5925    -0.0036 H            1    LIG   0.0000
  33 H            1.1853    -2.3811    -0.0240 H            1    LIG   0.0000
  34 H            2.4984    -1.8563    -0.8406 H            1    LIG   0.0000
  35 H            2.5043    -1.8705     0.7923 H            1    LIG   0.0000
  36 H            5.6641     2.6566     2.8046 H            1    LIG   0.0000
  37 H            9.2989     1.8574     0.9995 H            1    LIG   0.0000
  38 H            8.1494     0.7693    -0.7858 H            1    LIG   0.0000
  39 H            2.5605    -0.3215    -2.0887 H            1    LIG   0.0000
  40 H            2.6051    -1.5238    -4.1950 H            1    LIG   0.0000
  41 H            3.8603    -2.4754    -5.9855 H            1    LIG   0.0000
  42 H            6.1526    -0.2999    -2.4518 H            1    LIG   0.0000
  43 H            8.6545    -2.3299    -5.9998 H            1    LIG   0.0000
  44 H            7.9358    -0.9256    -6.4219 H            1    LIG   0.0000
@<TRIPOS>BOND
   1        1        2 1
   2        2        3 1
   3        3        4 2
   4        4        5 1
   5        4        6 1
   6        6        7 1
   7        7        8 ar
   8        8        9 ar
   9        9       10 ar
  10       10       11 ar
  11       11       12 1
  12       11       13 ar
  13       13       14 ar
  14       14       15 ar
  15       15        9 ar
  16       15       16 ar
  17       16       17 ar
  18       17        7 ar
  19       17       18 1
  20       18       19 1
  21       19       20 ar
  22       20       21 ar
  23       21       22 ar
  24       22       23 ar
  25       23       24 ar
  26       24       19 ar
  27       23       25 1
  28       25       26 1
  29       26       27 1
  30       27       22 1
  31        6       28 1
  32       28        2 2
  33        1       29 1
  34        1       30 1
  35        1       31 1
  36        3       32 1
  37        5       33 1
  38        5       34 1
  39        5       35 1
  40       10       36 1
  41       13       37 1
  42       14       38 1
  43       18       39 1
  44       20       40 1
  45       21       41 1
  46       24       42 1
  47       26       43 1
  48       26       44 1

