@<TRIPOS>MOLECULE
*****
 44 48 0 0 0
SMALL
USER_CHARGES

@<TRIPOS>ATOM
      1 C1         -1.1943    2.3120    0.0221 C.3     1  LIG1        0.0000
      2 C2          0.0470    1.4359    0.0114 C.2     1  LIG1        0.0000
      3 C3          0.0680    0.0263   -0.0004 C.2     1  LIG1        0.0000
      4 C4          1.3842   -0.3113   -0.0066 C.2     1  LIG1        0.0000
      5 C5          1.9407   -1.7258   -0.0209 C.3     1  LIG1        0.0000
      6 N6          2.1113    0.8397    0.0009 N.pl3   1  LIG1        0.0000
      7 C7          3.5101    0.9241   -0.0029 C.ar    1  LIG1        0.0000
      8 N8          4.2624   -0.0232   -0.5864 N.ar    1  LIG1        0.0000
      9 C9          5.6031    0.0362   -0.6013 C.ar    1  LIG1        0.0000
     10 C10         6.3717   -0.9522   -1.2088 C.ar    1  LIG1        0.0000
     11 C11         7.7614   -0.8817   -1.2197 C.ar    1  LIG1        0.0000
     12 Cl12        8.7401   -2.1491   -1.9979 Cl      1  LIG1        0.0000
     13 C13         8.3928    0.1981   -0.6103 C.ar    1  LIG1        0.0000
     14 C14         7.6254    1.1867   -0.0026 C.ar    1  LIG1        0.0000
     15 C15         6.2358    1.1160    0.0075 C.ar    1  LIG1        0.0000
     16 N16         5.4849    2.0633    0.5900 N.ar    1  LIG1        0.0000
     17 C17         4.1435    2.0038    0.6055 C.ar    1  LIG1        0.0000
     18 N18         3.3708    2.9996    1.2180 N.pl3   1  LIG1        0.0000
     19 C19         3.9964    4.0924    1.8345 C.ar    1  LIG1        0.0000
     20 C20         3.2295    5.0793    2.4467 C.ar    1  LIG1        0.0000
     21 C21         3.8687    6.1527    3.0580 C.ar    1  LIG1        0.0000
     22 C22         5.2545    6.2554    3.0761 C.ar    1  LIG1        0.0000
     23 C23         6.0079    5.2805    2.4749 C.ar    1  LIG1        0.0000
     24 C24         5.3823    4.2073    1.8493 C.ar    1  LIG1        0.0000
     25 O25         7.3051    5.6174    2.6330 O.3     1  LIG1        0.0000
     26 C26         7.3288    7.0013    2.9170 C.3     1  LIG1        0.0000
     27 O27         6.1035    7.1710    3.5864 O.3     1  LIG1        0.0000
     28 N28         1.2885    1.8606    0.0106 N.2     1  LIG1        0.0000
     29 H          -2.0103    1.7340    0.0204 H       1  LIG1        0.0000
     30 H          -1.1921    2.8832    0.8430 H       1  LIG1        0.0000
     31 H          -1.1975    2.8956   -0.7899 H       1  LIG1        0.0000
     32 H          -0.7175   -0.5925   -0.0036 H       1  LIG1        0.0000
     33 H           1.1853   -2.3811   -0.0240 H       1  LIG1        0.0000
     34 H           2.4984   -1.8563   -0.8406 H       1  LIG1        0.0000
     35 H           2.5043   -1.8705    0.7923 H       1  LIG1        0.0000
     36 H           5.9165   -1.7280   -1.6458 H       1  LIG1        0.0000
     37 H           9.3907    0.2630   -0.6090 H       1  LIG1        0.0000
     38 H           8.0807    1.9621    0.4348 H       1  LIG1        0.0000
     39 H           2.3732    2.9307    1.2154 H       1  LIG1        0.0000
     40 H           2.2315    5.0173    2.4472 H       1  LIG1        0.0000
     41 H           3.3194    6.8658    3.4938 H       1  LIG1        0.0000
     42 H           5.9385    3.5065    1.4027 H       1  LIG1        0.0000
     43 H           7.3658    7.5456    2.0789 H       1  LIG1        0.0000
     44 H           8.1021    7.2405    3.5042 H       1  LIG1        0.0000
@<TRIPOS>BOND
     1     1     2    1
     2     2     3    1
     3     3     4    2
     4     4     5    1
     5     4     6    1
     6     6     7    1
     7     7     8   ar
     8     8     9   ar
     9     9    10   ar
    10    10    11   ar
    11    11    12    1
    12    11    13   ar
    13    13    14   ar
    14    14    15   ar
    15    15     9   ar
    16    15    16   ar
    17    16    17   ar
    18    17     7   ar
    19    17    18    1
    20    18    19    1
    21    19    20   ar
    22    20    21   ar
    23    21    22   ar
    24    22    23   ar
    25    23    24   ar
    26    24    19   ar
    27    23    25    1
    28    25    26    1
    29    26    27    1
    30    27    22    1
    31     6    28    1
    32    28     2    2
    33     1    29    1
    34     1    30    1
    35     1    31    1
    36     3    32    1
    37     5    33    1
    38     5    34    1
    39     5    35    1
    40    10    36    1
    41    13    37    1
    42    14    38    1
    43    18    39    1
    44    20    40    1
    45    21    41    1
    46    24    42    1
    47    26    43    1
    48    26    44    1
