@<TRIPOS>MOLECULE
*****
 44 48 0 0 0
SMALL
USER_CHARGES

@<TRIPOS>ATOM
      1 C1         -1.1943    2.3120    0.0221 C.3     1  LIG1        0.0000
      2 C2          0.0470    1.4359    0.0114 C.2     1  LIG1        0.0000
      3 C3          0.0680    0.0263   -0.0004 C.2     1  LIG1        0.0000
      4 C4          1.3842   -0.3113   -0.0066 C.2     1  LIG1        0.0000
      5 C5          1.9407   -1.7258   -0.0209 C.3     1  LIG1        0.0000
      6 N6          2.1113    0.8397    0.0009 N.pl3   1  LIG1        0.0000
      7 C7          3.5101    0.9241   -0.0029 C.ar    1  LIG1        0.0000
      8 N8          4.1729    1.5324    0.9943 N.ar    1  LIG1        0.0000
      9 C9          5.5115    1.6261    1.0112 C.ar    1  LIG1        0.0000
     10 C10         6.1867    2.2597    2.0501 C.ar    1  LIG1        0.0000
     11 C11         7.5752    2.3514    2.0592 C.ar    1  LIG1        0.0000
     12 Cl12        8.4341    3.1634    3.3906 Cl      1  LIG1        0.0000
     13 C13         8.3006    1.7993    1.0080 C.ar    1  LIG1        0.0000
     14 C14         7.6266    1.1658   -0.0311 C.ar    1  LIG1        0.0000
     15 C15         6.2382    1.0737   -0.0395 C.ar    1  LIG1        0.0000
     16 N16         5.5769    0.4651   -1.0358 N.ar    1  LIG1        0.0000
     17 C17         4.2375    0.3717   -1.0532 C.ar    1  LIG1        0.0000
     18 N18         3.5589   -0.2662   -2.1003 N.pl3   1  LIG1        0.0000
     19 C19         4.2789   -0.8261   -3.1630 C.ar    1  LIG1        0.0000
     20 C20         3.6033   -1.4643   -4.1985 C.ar    1  LIG1        0.0000
     21 C21         4.3423   -2.0180   -5.2382 C.ar    1  LIG1        0.0000
     22 C22         5.7346   -1.9550   -5.2707 C.ar    1  LIG1        0.0000
     23 C23         6.4013   -1.3148   -4.2412 C.ar    1  LIG1        0.0000
     24 C24         5.6685   -0.7590   -3.1967 C.ar    1  LIG1        0.0000
     25 O25         7.7230   -1.4025   -4.4874 O.3     1  LIG1        0.0000
     26 C26         7.8577   -1.7439   -5.8523 C.3     1  LIG1        0.0000
     27 O27         6.6604   -2.4379   -6.1224 O.3     1  LIG1        0.0000
     28 N28         1.2885    1.8606    0.0106 N.2     1  LIG1        0.0000
     29 H          -2.0103    1.7340    0.0204 H       1  LIG1        0.0000
     30 H          -1.1921    2.8832    0.8430 H       1  LIG1        0.0000
     31 H          -1.1975    2.8956   -0.7899 H       1  LIG1        0.0000
     32 H          -0.7175   -0.5925   -0.0036 H       1  LIG1        0.0000
     33 H           1.1853   -2.3811   -0.0240 H       1  LIG1        0.0000
     34 H           2.4984   -1.8563   -0.8406 H       1  LIG1        0.0000
     35 H           2.5043   -1.8705    0.7923 H       1  LIG1        0.0000
     36 H           5.6641    2.6566    2.8046 H       1  LIG1        0.0000
     37 H           9.2989    1.8574    0.9995 H       1  LIG1        0.0000
     38 H           8.1494    0.7693   -0.7858 H       1  LIG1        0.0000
     39 H           2.5605   -0.3215   -2.0887 H       1  LIG1        0.0000
     40 H           2.6051   -1.5238   -4.1950 H       1  LIG1        0.0000
     41 H           3.8603   -2.4754   -5.9855 H       1  LIG1        0.0000
     42 H           6.1526   -0.2999   -2.4518 H       1  LIG1        0.0000
     43 H           8.6545   -2.3299   -5.9998 H       1  LIG1        0.0000
     44 H           7.9358   -0.9256   -6.4219 H       1  LIG1        0.0000
@<TRIPOS>BOND
     1     1     2    1
     2     2     3    1
     3     3     4    2
     4     4     5    1
     5     4     6    1
     6     6     7    1
     7     7     8   ar
     8     8     9   ar
     9     9    10   ar
    10    10    11   ar
    11    11    12    1
    12    11    13   ar
    13    13    14   ar
    14    14    15   ar
    15    15     9   ar
    16    15    16   ar
    17    16    17   ar
    18    17     7   ar
    19    17    18    1
    20    18    19    1
    21    19    20   ar
    22    20    21   ar
    23    21    22   ar
    24    22    23   ar
    25    23    24   ar
    26    24    19   ar
    27    23    25    1
    28    25    26    1
    29    26    27    1
    30    27    22    1
    31     6    28    1
    32    28     2    2
    33     1    29    1
    34     1    30    1
    35     1    31    1
    36     3    32    1
    37     5    33    1
    38     5    34    1
    39     5    35    1
    40    10    36    1
    41    13    37    1
    42    14    38    1
    43    18    39    1
    44    20    40    1
    45    21    41    1
    46    24    42    1
    47    26    43    1
    48    26    44    1
