@<TRIPOS>MOLECULE
*****
 44 48 0 0 0
SMALL
USER_CHARGES

@<TRIPOS>ATOM
      1 C1         -1.1943    2.3120    0.0221 C.3     1  LIG1        0.0000
      2 C2          0.0470    1.4359    0.0114 C.2     1  LIG1        0.0000
      3 C3          0.0680    0.0263   -0.0004 C.2     1  LIG1        0.0000
      4 C4          1.3842   -0.3113   -0.0066 C.2     1  LIG1        0.0000
      5 C5          1.9407   -1.7258   -0.0209 C.3     1  LIG1        0.0000
      6 N6          2.1113    0.8397    0.0009 N.pl3   1  LIG1        0.0000
      7 C7          3.5101    0.9241   -0.0029 C.ar    1  LIG1        0.0000
      8 N8          4.2660   -0.0312    0.5625 N.ar    1  LIG1        0.0000
      9 C9          5.6067    0.0291    0.5718 C.ar    1  LIG1        0.0000
     10 C10         6.3790   -0.9671    1.1616 C.ar    1  LIG1        0.0000
     11 C11         7.7687   -0.8961    1.1658 C.ar    1  LIG1        0.0000
     12 Cl12        8.7521   -2.1730    1.9221 Cl      1  LIG1        0.0000
     13 C13         8.3963    0.1930    0.5691 C.ar    1  LIG1        0.0000
     14 C14         7.6252    1.1894   -0.0208 C.ar    1  LIG1        0.0000
     15 C15         6.2356    1.1177   -0.0252 C.ar    1  LIG1        0.0000
     16 N16         5.4812    2.0723   -0.5910 N.ar    1  LIG1        0.0000
     17 C17         4.1397    2.0124   -0.6000 C.ar    1  LIG1        0.0000
     18 N18         3.3633    3.0164   -1.1939 N.pl3   1  LIG1        0.0000
     19 C19         3.9850    4.1179   -1.7987 C.ar    1  LIG1        0.0000
     20 C20         5.3735    4.2123   -1.8133 C.ar    1  LIG1        0.0000
     21 C21         5.9720    5.3097   -2.4232 C.ar    1  LIG1        0.0000
     22 C22         5.2133    6.3076   -3.0233 C.ar    1  LIG1        0.0000
     23 C23         3.8459    6.2109   -3.0102 C.ar    1  LIG1        0.0000
     24 C24         3.2331    5.1252   -2.3936 C.ar    1  LIG1        0.0000
     25 O25         3.3582    7.2945   -3.6498 O.3     1  LIG1        0.0000
     26 C26         4.3883    8.2616   -3.6441 C.3     1  LIG1        0.0000
     27 O27         5.5359    7.4487   -3.6661 O.3     1  LIG1        0.0000
     28 N28         1.2885    1.8606    0.0106 N.2     1  LIG1        0.0000
     29 H          -2.0103    1.7340    0.0204 H       1  LIG1        0.0000
     30 H          -1.1921    2.8832    0.8430 H       1  LIG1        0.0000
     31 H          -1.1975    2.8956   -0.7899 H       1  LIG1        0.0000
     32 H          -0.7175   -0.5925   -0.0036 H       1  LIG1        0.0000
     33 H           1.1853   -2.3811   -0.0240 H       1  LIG1        0.0000
     34 H           2.4984   -1.8563   -0.8406 H       1  LIG1        0.0000
     35 H           2.5043   -1.8705    0.7923 H       1  LIG1        0.0000
     36 H           5.9266   -1.7489    1.5907 H       1  LIG1        0.0000
     37 H           9.3941    0.2590    0.5643 H       1  LIG1        0.0000
     38 H           8.0778    1.9714   -0.4493 H       1  LIG1        0.0000
     39 H           2.3657    2.9473   -1.1863 H       1  LIG1        0.0000
     40 H           5.9338    3.5000   -1.3907 H       1  LIG1        0.0000
     41 H           6.9694    5.3822   -2.4300 H       1  LIG1        0.0000
     42 H           2.2348    5.0680   -2.3779 H       1  LIG1        0.0000
     43 H           4.3556    8.8253   -2.8187 H       1  LIG1        0.0000
     44 H           4.3417    8.8498   -4.4514 H       1  LIG1        0.0000
@<TRIPOS>BOND
     1     1     2    1
     2     2     3    1
     3     3     4    2
     4     4     5    1
     5     4     6    1
     6     6     7    1
     7     7     8   ar
     8     8     9   ar
     9     9    10   ar
    10    10    11   ar
    11    11    12    1
    12    11    13   ar
    13    13    14   ar
    14    14    15   ar
    15    15     9   ar
    16    15    16   ar
    17    16    17   ar
    18    17     7   ar
    19    17    18    1
    20    18    19    1
    21    19    20   ar
    22    20    21   ar
    23    21    22   ar
    24    22    23   ar
    25    23    24   ar
    26    24    19   ar
    27    23    25    1
    28    25    26    1
    29    26    27    1
    30    27    22    1
    31     6    28    1
    32    28     2    2
    33     1    29    1
    34     1    30    1
    35     1    31    1
    36     3    32    1
    37     5    33    1
    38     5    34    1
    39     5    35    1
    40    10    36    1
    41    13    37    1
    42    14    38    1
    43    18    39    1
    44    20    40    1
    45    21    41    1
    46    24    42    1
    47    26    43    1
    48    26    44    1
