@<TRIPOS>MOLECULE
*****
 44 48 0 0 0
SMALL
USER_CHARGES

@<TRIPOS>ATOM
      1 C1         -1.1943    2.3120    0.0221 C.3     1  LIG1        0.0000
      2 C2          0.0470    1.4359    0.0114 C.2     1  LIG1        0.0000
      3 C3          0.0680    0.0263   -0.0004 C.2     1  LIG1        0.0000
      4 C4          1.3842   -0.3113   -0.0066 C.2     1  LIG1        0.0000
      5 C5          1.9407   -1.7258   -0.0209 C.3     1  LIG1        0.0000
      6 N6          2.1113    0.8397    0.0009 N.pl3   1  LIG1        0.0000
      7 C7          3.5101    0.9241   -0.0029 C.ar    1  LIG1        0.0000
      8 N8          4.2007    0.9740   -1.1537 N.ar    1  LIG1        0.0000
      9 C9          5.5401    1.0538   -1.1816 C.ar    1  LIG1        0.0000
     10 C10         6.2444    1.1043   -2.3808 C.ar    1  LIG1        0.0000
     11 C11         7.6334    1.1877   -2.3996 C.ar    1  LIG1        0.0000
     12 Cl12        8.5296    1.2516   -3.9366 Cl      1  LIG1        0.0000
     13 C13         8.3296    1.2202   -1.1954 C.ar    1  LIG1        0.0000
     14 C14         7.6265    1.1697    0.0040 C.ar    1  LIG1        0.0000
     15 C15         6.2376    1.0870    0.0224 C.ar    1  LIG1        0.0000
     16 N16         5.5484    1.0379    1.1726 N.ar    1  LIG1        0.0000
     17 C17         4.2082    0.9574    1.2007 C.ar    1  LIG1        0.0000
     18 N18         3.5003    0.9062    2.4090 N.pl3   1  LIG1        0.0000
     19 C19         4.1916    0.9390    3.6284 C.ar    1  LIG1        0.0000
     20 C20         3.4891    0.8836    4.8286 C.ar    1  LIG1        0.0000
     21 C21         4.1930    0.9115    6.0279 C.ar    1  LIG1        0.0000
     22 C22         5.5805    0.9858    6.0515 C.ar    1  LIG1        0.0000
     23 C23         6.2704    1.0373    4.8679 C.ar    1  LIG1        0.0000
     24 C24         5.5794    1.0222    3.6610 C.ar    1  LIG1        0.0000
     25 O25         7.5842    1.1055    5.1687 O.3     1  LIG1        0.0000
     26 C26         7.6672    1.5552    6.5057 C.3     1  LIG1        0.0000
     27 O27         6.4835    1.0276    7.0526 O.3     1  LIG1        0.0000
     28 N28         1.2885    1.8606    0.0106 N.2     1  LIG1        0.0000
     29 H          -2.0103    1.7340    0.0204 H       1  LIG1        0.0000
     30 H          -1.1921    2.8832    0.8430 H       1  LIG1        0.0000
     31 H          -1.1975    2.8956   -0.7899 H       1  LIG1        0.0000
     32 H          -0.7175   -0.5925   -0.0036 H       1  LIG1        0.0000
     33 H           1.1853   -2.3811   -0.0240 H       1  LIG1        0.0000
     34 H           2.4984   -1.8563   -0.8406 H       1  LIG1        0.0000
     35 H           2.5043   -1.8705    0.7923 H       1  LIG1        0.0000
     36 H           5.7428    1.0802   -3.2455 H       1  LIG1        0.0000
     37 H           9.3278    1.2793   -1.1920 H       1  LIG1        0.0000
     38 H           8.1283    1.1932    0.8686 H       1  LIG1        0.0000
     39 H           2.5022    0.8462    2.4016 H       1  LIG1        0.0000
     40 H           2.4909    0.8245    4.8286 H       1  LIG1        0.0000
     41 H           3.6899    0.8774    6.8914 H       1  LIG1        0.0000
     42 H           6.0891    1.0720    2.8021 H       1  LIG1        0.0000
     43 H           7.6791    2.5539    6.5552 H       1  LIG1        0.0000
     44 H           8.4766    1.1890    6.9647 H       1  LIG1        0.0000
@<TRIPOS>BOND
     1     1     2    1
     2     2     3    1
     3     3     4    2
     4     4     5    1
     5     4     6    1
     6     6     7    1
     7     7     8   ar
     8     8     9   ar
     9     9    10   ar
    10    10    11   ar
    11    11    12    1
    12    11    13   ar
    13    13    14   ar
    14    14    15   ar
    15    15     9   ar
    16    15    16   ar
    17    16    17   ar
    18    17     7   ar
    19    17    18    1
    20    18    19    1
    21    19    20   ar
    22    20    21   ar
    23    21    22   ar
    24    22    23   ar
    25    23    24   ar
    26    24    19   ar
    27    23    25    1
    28    25    26    1
    29    26    27    1
    30    27    22    1
    31     6    28    1
    32    28     2    2
    33     1    29    1
    34     1    30    1
    35     1    31    1
    36     3    32    1
    37     5    33    1
    38     5    34    1
    39     5    35    1
    40    10    36    1
    41    13    37    1
    42    14    38    1
    43    18    39    1
    44    20    40    1
    45    21    41    1
    46    24    42    1
    47    26    43    1
    48    26    44    1
