@<TRIPOS>MOLECULE
*****
 44 48 0 0 0
SMALL
USER_CHARGES

@<TRIPOS>ATOM
      1 C1         -1.1943    2.3120    0.0221 C.3     1  LIG1        0.0000
      2 C2          0.0470    1.4359    0.0114 C.2     1  LIG1        0.0000
      3 C3          0.0680    0.0263   -0.0004 C.2     1  LIG1        0.0000
      4 C4          1.3842   -0.3113   -0.0066 C.2     1  LIG1        0.0000
      5 C5          1.9407   -1.7258   -0.0209 C.3     1  LIG1        0.0000
      6 N6          2.1113    0.8397    0.0009 N.pl3   1  LIG1        0.0000
      7 C7          3.5101    0.9241   -0.0029 C.ar    1  LIG1        0.0000
      8 N8          4.2079    0.9579    1.1441 N.ar    1  LIG1        0.0000
      9 C9          5.5473    1.0397    1.1647 C.ar    1  LIG1        0.0000
     10 C10         6.2590    1.0746    2.3600 C.ar    1  LIG1        0.0000
     11 C11         7.6480    1.1589    2.3714 C.ar    1  LIG1        0.0000
     12 Cl12        8.5538    1.2037    3.9034 Cl      1  LIG1        0.0000
     13 C13         8.3366    1.2100    1.1634 C.ar    1  LIG1        0.0000
     14 C14         7.6260    1.1752   -0.0322 C.ar    1  LIG1        0.0000
     15 C15         6.2372    1.0903   -0.0430 C.ar    1  LIG1        0.0000
     16 N16         5.5409    1.0558   -1.1895 N.ar    1  LIG1        0.0000
     17 C17         4.2007    0.9745   -1.2104 C.ar    1  LIG1        0.0000
     18 N18         3.4852    0.9399   -2.4148 N.pl3   1  LIG1        0.0000
     19 C19         4.1688    0.9900   -3.6379 C.ar    1  LIG1        0.0000
     20 C20         3.4583    0.9601   -4.8342 C.ar    1  LIG1        0.0000
     21 C21         4.1539    1.0167   -6.0373 C.ar    1  LIG1        0.0000
     22 C22         5.5402    1.1097   -6.0685 C.ar    1  LIG1        0.0000
     23 C23         6.2376    1.1420   -4.8887 C.ar    1  LIG1        0.0000
     24 C24         5.5564    1.0742   -3.6780 C.ar    1  LIG1        0.0000
     25 O25         7.5485    1.2321   -5.1966 O.3     1  LIG1        0.0000
     26 C26         7.6777    0.7952   -6.5341 C.3     1  LIG1        0.0000
     27 O27         6.4363    1.1764   -7.0745 O.3     1  LIG1        0.0000
     28 N28         1.2885    1.8606    0.0106 N.2     1  LIG1        0.0000
     29 H          -2.0103    1.7340    0.0204 H       1  LIG1        0.0000
     30 H          -1.1921    2.8832    0.8430 H       1  LIG1        0.0000
     31 H          -1.1975    2.8956   -0.7899 H       1  LIG1        0.0000
     32 H          -0.7175   -0.5925   -0.0036 H       1  LIG1        0.0000
     33 H           1.1853   -2.3811   -0.0240 H       1  LIG1        0.0000
     34 H           2.4984   -1.8563   -0.8406 H       1  LIG1        0.0000
     35 H           2.5043   -1.8705    0.7923 H       1  LIG1        0.0000
     36 H           5.7628    1.0385    3.2275 H       1  LIG1        0.0000
     37 H           9.3347    1.2713    1.1546 H       1  LIG1        0.0000
     38 H           8.1224    1.2118   -0.8995 H       1  LIG1        0.0000
     39 H           2.4872    0.8794   -2.4019 H       1  LIG1        0.0000
     40 H           2.4602    0.8988   -4.8289 H       1  LIG1        0.0000
     41 H           3.6457    0.9898   -6.8982 H       1  LIG1        0.0000
     42 H           6.0730    1.0863   -2.8219 H       1  LIG1        0.0000
     43 H           7.8093   -0.1948   -6.5840 H       1  LIG1        0.0000
     44 H           8.4347    1.2559   -6.9974 H       1  LIG1        0.0000
@<TRIPOS>BOND
     1     1     2    1
     2     2     3    1
     3     3     4    2
     4     4     5    1
     5     4     6    1
     6     6     7    1
     7     7     8   ar
     8     8     9   ar
     9     9    10   ar
    10    10    11   ar
    11    11    12    1
    12    11    13   ar
    13    13    14   ar
    14    14    15   ar
    15    15     9   ar
    16    15    16   ar
    17    16    17   ar
    18    17     7   ar
    19    17    18    1
    20    18    19    1
    21    19    20   ar
    22    20    21   ar
    23    21    22   ar
    24    22    23   ar
    25    23    24   ar
    26    24    19   ar
    27    23    25    1
    28    25    26    1
    29    26    27    1
    30    27    22    1
    31     6    28    1
    32    28     2    2
    33     1    29    1
    34     1    30    1
    35     1    31    1
    36     3    32    1
    37     5    33    1
    38     5    34    1
    39     5    35    1
    40    10    36    1
    41    13    37    1
    42    14    38    1
    43    18    39    1
    44    20    40    1
    45    21    41    1
    46    24    42    1
    47    26    43    1
    48    26    44    1
