@<TRIPOS>MOLECULE

  63   66
SMALL
USER_CHARGES
@<TRIPOS>ATOM
   1 C1          10.4429     6.0571     0.0166 C.3          1    LIG   0.0000
   2 C2           8.9704     5.8685    -0.3135 C.2          1    LIG   0.0000
   3 C3           8.3191     6.9155    -1.0163 C.2          1    LIG   0.0000
   4 C4           6.9933     6.7567    -1.3192 C.2          1    LIG   0.0000
   5 C5           6.2944     7.8758    -2.0742 C.3          1    LIG   0.0000
   6 N6           6.3215     5.6227    -0.9522 N.pl3        1    LIG   0.0000
   7 N7           5.0652     5.2886    -1.1449 N.2          1    LIG   0.0000
   8 C8           4.8857     4.1035    -0.6165 C.2          1    LIG   0.0000
   9 C9           3.6391     3.3633    -0.6088 C.2          1    LIG   0.0000
  10 O10          2.6590     3.8333    -1.1173 O.2          1    LIG   0.0000
  11 N11          3.5801     2.1272    -0.0211 N.am         1    LIG   0.0000
  12 C12          2.3765     1.4125    -0.0137 C.ar         1    LIG   0.0000
  13 C13          1.1683     2.1010     0.0014 C.ar         1    LIG   0.0000
  14 C14         -0.0185     1.3758     0.0093 C.ar         1    LIG   0.0000
  15 S15         -1.5352     2.2275     0.0286 S.o2         1    LIG   0.0000
  16 O16         -2.5227     1.4337     0.7130 O.2          1    LIG   0.0000
  17 O17         -1.3714     3.4841     0.7124 O.2          1    LIG   0.0000
  18 N18         -2.0641     2.5239    -1.6274 N.3          1    LIG   0.0000
  19 C19         -1.0885     3.3639    -2.3385 C.3          1    LIG   0.0000
  20 C20         -1.5638     3.6155    -3.7607 C.3          1    LIG   0.0000
  21 O21         -1.7485     2.3788    -4.4342 O.3          1    LIG   0.0000
  22 C22         -2.7049     1.5552    -3.7835 C.3          1    LIG   0.0000
  23 C23         -2.2686     1.2637    -2.3568 C.3          1    LIG   0.0000
  24 C24         -0.0151    -0.0154     0.0019 C.ar         1    LIG   0.0000
  25 C25          1.2000    -0.6920    -0.0125 C.ar         1    LIG   0.0000
  26 C26          2.3937     0.0225    -0.0207 C.ar         1    LIG   0.0000
  27 N27          3.6179    -0.6549    -0.0358 N.pl3        1    LIG   0.0000
  28 C28          3.6446    -2.1247    -0.0433 C.3          1    LIG   0.0000
  29 C29          5.0865    -2.6051    -0.0595 C.3          1    LIG   0.0000
  30 C30          5.1141    -4.1249    -0.0672 C.3          1    LIG   0.0000
  31 C31          5.7818    -2.0794    -1.3047 C.3          1    LIG   0.0000
  32 N32          6.0619     3.6762    -0.0736 N.2          1    LIG   0.0000
  33 C33          6.9467     4.6268    -0.2818 C.2          1    LIG   0.0000
  34 N34          8.2785     4.7874     0.0192 N.2          1    LIG   0.0000
  35 H           10.7514     6.9429    -0.3302 H            1    LIG   0.0000
  36 H           10.5691     6.0250     1.0081 H            1    LIG   0.0000
  37 H           10.9765     5.3275    -0.4111 H            1    LIG   0.0000
  38 H            8.8131     7.7433    -1.2820 H            1    LIG   0.0000
  39 H            6.9444     8.6146    -2.2520 H            1    LIG   0.0000
  40 H            5.9439     7.5240    -2.9422 H            1    LIG   0.0000
  41 H            5.5351     8.2248    -1.5251 H            1    LIG   0.0000
  42 H            4.3968     1.7355     0.4026 H            1    LIG   0.0000
  43 H            1.1531     3.1009     0.0065 H            1    LIG   0.0000
  44 H           -0.2041     2.8978    -2.3618 H            1    LIG   0.0000
  45 H           -0.9926     4.2374    -1.8612 H            1    LIG   0.0000
  46 H           -2.4308     4.1132    -3.7374 H            1    LIG   0.0000
  47 H           -0.8802     4.1594    -4.2474 H            1    LIG   0.0000
  48 H           -2.7931     0.6939    -4.2838 H            1    LIG   0.0000
  49 H           -3.5881     2.0240    -3.7688 H            1    LIG   0.0000
  50 H           -2.9755     0.7259    -1.8974 H            1    LIG   0.0000
  51 H           -1.4128     0.7465    -2.3712 H            1    LIG   0.0000
  52 H           -0.8766    -0.5231     0.0068 H            1    LIG   0.0000
  53 H            1.2156    -1.6919    -0.0170 H            1    LIG   0.0000
  54 H            4.4746    -0.1392    -0.0415 H            1    LIG   0.0000
  55 H            3.1715    -2.4625    -0.8569 H            1    LIG   0.0000
  56 H            3.1871    -2.4705     0.7760 H            1    LIG   0.0000
  57 H            5.5596    -2.2673     0.7542 H            1    LIG   0.0000
  58 H            6.0628    -4.4410    -0.0779 H            1    LIG   0.0000
  59 H            4.6567    -4.4707     0.7520 H            1    LIG   0.0000
  60 H            4.6410    -4.4627    -0.8809 H            1    LIG   0.0000
  61 H            6.7305    -2.3955    -1.3154 H            1    LIG   0.0000
  62 H            5.3087    -2.4173    -2.1184 H            1    LIG   0.0000
  63 H            5.7636    -1.0796    -1.2996 H            1    LIG   0.0000
@<TRIPOS>BOND
   1        1        2 1
   2        2        3 1
   3        3        4 2
   4        4        5 1
   5        4        6 1
   6        6        7 1
   7        7        8 2
   8        8        9 1
   9        9       10 2
  10        9       11 am
  11       11       12 1
  12       12       13 ar
  13       13       14 ar
  14       14       15 1
  15       15       16 2
  16       15       17 2
  17       15       18 1
  18       18       19 1
  19       19       20 1
  20       20       21 1
  21       21       22 1
  22       22       23 1
  23       23       18 1
  24       14       24 ar
  25       24       25 ar
  26       25       26 ar
  27       26       12 ar
  28       26       27 1
  29       27       28 1
  30       28       29 1
  31       29       30 1
  32       29       31 1
  33        8       32 1
  34       32       33 2
  35       33        6 1
  36       33       34 1
  37       34        2 2
  38        1       35 1
  39        1       36 1
  40        1       37 1
  41        3       38 1
  42        5       39 1
  43        5       40 1
  44        5       41 1
  45       11       42 1
  46       13       43 1
  47       19       44 1
  48       19       45 1
  49       20       46 1
  50       20       47 1
  51       22       48 1
  52       22       49 1
  53       23       50 1
  54       23       51 1
  55       24       52 1
  56       25       53 1
  57       27       54 1
  58       28       55 1
  59       28       56 1
  60       29       57 1
  61       30       58 1
  62       30       59 1
  63       30       60 1
  64       31       61 1
  65       31       62 1
  66       31       63 1

@<TRIPOS>MOLECULE

  63   66
SMALL
USER_CHARGES
@<TRIPOS>ATOM
   1 C1          10.4429     6.0571     0.0166 C.3          1    LIG   0.0000
   2 C2           8.9704     5.8685    -0.3135 C.2          1    LIG   0.0000
   3 C3           8.3191     6.9155    -1.0163 C.2          1    LIG   0.0000
   4 C4           6.9933     6.7567    -1.3192 C.2          1    LIG   0.0000
   5 C5           6.2944     7.8758    -2.0742 C.3          1    LIG   0.0000
   6 N6           6.3215     5.6227    -0.9522 N.pl3        1    LIG   0.0000
   7 N7           5.0652     5.2886    -1.1449 N.2          1    LIG   0.0000
   8 C8           4.8857     4.1035    -0.6165 C.2          1    LIG   0.0000
   9 C9           3.6391     3.3633    -0.6088 C.2          1    LIG   0.0000
  10 O10          2.6590     3.8333    -1.1173 O.2          1    LIG   0.0000
  11 N11          3.5801     2.1272    -0.0211 N.am         1    LIG   0.0000
  12 C12          2.3765     1.4125    -0.0137 C.ar         1    LIG   0.0000
  13 C13          1.1683     2.1010     0.0014 C.ar         1    LIG   0.0000
  14 C14         -0.0185     1.3758     0.0093 C.ar         1    LIG   0.0000
  15 S15         -1.5352     2.2275     0.0286 S.o2         1    LIG   0.0000
  16 O16         -1.3847     3.4912    -0.6452 O.2          1    LIG   0.0000
  17 O17         -2.5360     1.4408    -0.6445 O.2          1    LIG   0.0000
  18 N18         -2.0314     2.5066     1.6977 N.3          1    LIG   0.0000
  19 C19         -2.2270     1.2287     2.3988 C.3          1    LIG   0.0000
  20 C20         -2.6617     1.4880     3.8326 C.3          1    LIG   0.0000
  21 O21         -1.6889     2.2822     4.4961 O.3          1    LIG   0.0000
  22 C22         -1.4961     3.5346     3.8551 C.3          1    LIG   0.0000
  23 C23         -1.0478     3.3294     2.4172 C.3          1    LIG   0.0000
  24 C24         -0.0151    -0.0154     0.0019 C.ar         1    LIG   0.0000
  25 C25          1.2000    -0.6920    -0.0125 C.ar         1    LIG   0.0000
  26 C26          2.3937     0.0225    -0.0207 C.ar         1    LIG   0.0000
  27 N27          3.6179    -0.6549    -0.0358 N.pl3        1    LIG   0.0000
  28 C28          3.6446    -2.1247    -0.0433 C.3          1    LIG   0.0000
  29 C29          5.0865    -2.6051    -0.0595 C.3          1    LIG   0.0000
  30 C30          5.1141    -4.1249    -0.0672 C.3          1    LIG   0.0000
  31 C31          5.7818    -2.0794    -1.3047 C.3          1    LIG   0.0000
  32 N32          6.0619     3.6762    -0.0736 N.2          1    LIG   0.0000
  33 C33          6.9467     4.6268    -0.2818 C.2          1    LIG   0.0000
  34 N34          8.2785     4.7874     0.0192 N.2          1    LIG   0.0000
  35 H           10.7514     6.9429    -0.3302 H            1    LIG   0.0000
  36 H           10.5691     6.0250     1.0081 H            1    LIG   0.0000
  37 H           10.9765     5.3275    -0.4111 H            1    LIG   0.0000
  38 H            8.8131     7.7433    -1.2820 H            1    LIG   0.0000
  39 H            6.9444     8.6146    -2.2520 H            1    LIG   0.0000
  40 H            5.9439     7.5240    -2.9422 H            1    LIG   0.0000
  41 H            5.5351     8.2248    -1.5251 H            1    LIG   0.0000
  42 H            4.3968     1.7355     0.4026 H            1    LIG   0.0000
  43 H            1.1531     3.1009     0.0065 H            1    LIG   0.0000
  44 H           -1.3685     0.7160     2.3999 H            1    LIG   0.0000
  45 H           -2.9321     0.6972     1.9293 H            1    LIG   0.0000
  46 H           -3.5382     1.9693     3.8316 H            1    LIG   0.0000
  47 H           -2.7608     0.6159     4.3119 H            1    LIG   0.0000
  48 H           -0.7969     4.0528     4.3476 H            1    LIG   0.0000
  49 H           -2.3562     4.0447     3.8626 H            1    LIG   0.0000
  50 H           -0.9654     4.2179     1.9657 H            1    LIG   0.0000
  51 H           -0.1607     2.8680     2.4093 H            1    LIG   0.0000
  52 H           -0.8766    -0.5231     0.0068 H            1    LIG   0.0000
  53 H            1.2156    -1.6919    -0.0170 H            1    LIG   0.0000
  54 H            4.4746    -0.1392    -0.0415 H            1    LIG   0.0000
  55 H            3.1715    -2.4625    -0.8569 H            1    LIG   0.0000
  56 H            3.1871    -2.4705     0.7760 H            1    LIG   0.0000
  57 H            5.5596    -2.2673     0.7542 H            1    LIG   0.0000
  58 H            6.0628    -4.4410    -0.0779 H            1    LIG   0.0000
  59 H            4.6567    -4.4707     0.7520 H            1    LIG   0.0000
  60 H            4.6410    -4.4627    -0.8809 H            1    LIG   0.0000
  61 H            6.7305    -2.3955    -1.3154 H            1    LIG   0.0000
  62 H            5.3087    -2.4173    -2.1184 H            1    LIG   0.0000
  63 H            5.7636    -1.0796    -1.2996 H            1    LIG   0.0000
@<TRIPOS>BOND
   1        1        2 1
   2        2        3 1
   3        3        4 2
   4        4        5 1
   5        4        6 1
   6        6        7 1
   7        7        8 2
   8        8        9 1
   9        9       10 2
  10        9       11 am
  11       11       12 1
  12       12       13 ar
  13       13       14 ar
  14       14       15 1
  15       15       16 2
  16       15       17 2
  17       15       18 1
  18       18       19 1
  19       19       20 1
  20       20       21 1
  21       21       22 1
  22       22       23 1
  23       23       18 1
  24       14       24 ar
  25       24       25 ar
  26       25       26 ar
  27       26       12 ar
  28       26       27 1
  29       27       28 1
  30       28       29 1
  31       29       30 1
  32       29       31 1
  33        8       32 1
  34       32       33 2
  35       33        6 1
  36       33       34 1
  37       34        2 2
  38        1       35 1
  39        1       36 1
  40        1       37 1
  41        3       38 1
  42        5       39 1
  43        5       40 1
  44        5       41 1
  45       11       42 1
  46       13       43 1
  47       19       44 1
  48       19       45 1
  49       20       46 1
  50       20       47 1
  51       22       48 1
  52       22       49 1
  53       23       50 1
  54       23       51 1
  55       24       52 1
  56       25       53 1
  57       27       54 1
  58       28       55 1
  59       28       56 1
  60       29       57 1
  61       30       58 1
  62       30       59 1
  63       30       60 1
  64       31       61 1
  65       31       62 1
  66       31       63 1

@<TRIPOS>MOLECULE

  63   66
SMALL
USER_CHARGES
@<TRIPOS>ATOM
   1 C1           9.2548     8.0443    -1.3104 C.3          1    LIG   0.0000
   2 C2           8.3874     6.8435    -0.9660 C.2          1    LIG   0.0000
   3 C3           9.0014     5.7743    -0.2629 C.2          1    LIG   0.0000
   4 C4           8.2302     4.6879     0.0528 C.2          1    LIG   0.0000
   5 C5           8.8851     3.5427     0.8081 C.3          1    LIG   0.0000
   6 N6           6.9098     4.6388    -0.3019 N.pl3        1    LIG   0.0000
   7 N7           6.0169     3.6968    -0.0960 N.2          1    LIG   0.0000
   8 C8           4.8857     4.1035    -0.6165 C.2          1    LIG   0.0000
   9 C9           3.6391     3.3633    -0.6088 C.2          1    LIG   0.0000
  10 O10          2.6590     3.8333    -1.1173 O.2          1    LIG   0.0000
  11 N11          3.5801     2.1272    -0.0211 N.am         1    LIG   0.0000
  12 C12          2.3765     1.4125    -0.0137 C.ar         1    LIG   0.0000
  13 C13          1.1683     2.1010     0.0014 C.ar         1    LIG   0.0000
  14 C14         -0.0185     1.3758     0.0093 C.ar         1    LIG   0.0000
  15 S15         -1.5352     2.2275     0.0286 S.o2         1    LIG   0.0000
  16 O16         -2.5227     1.4337     0.7130 O.2          1    LIG   0.0000
  17 O17         -1.3714     3.4841     0.7124 O.2          1    LIG   0.0000
  18 N18         -2.0641     2.5239    -1.6274 N.3          1    LIG   0.0000
  19 C19         -1.0885     3.3639    -2.3385 C.3          1    LIG   0.0000
  20 C20         -1.5638     3.6155    -3.7607 C.3          1    LIG   0.0000
  21 O21         -1.7485     2.3788    -4.4342 O.3          1    LIG   0.0000
  22 C22         -2.7049     1.5552    -3.7835 C.3          1    LIG   0.0000
  23 C23         -2.2686     1.2637    -2.3568 C.3          1    LIG   0.0000
  24 C24         -0.0151    -0.0154     0.0019 C.ar         1    LIG   0.0000
  25 C25          1.2000    -0.6920    -0.0125 C.ar         1    LIG   0.0000
  26 C26          2.3937     0.0225    -0.0207 C.ar         1    LIG   0.0000
  27 N27          3.6179    -0.6549    -0.0358 N.pl3        1    LIG   0.0000
  28 C28          3.6446    -2.1247    -0.0433 C.3          1    LIG   0.0000
  29 C29          5.0865    -2.6051    -0.0595 C.3          1    LIG   0.0000
  30 C30          5.1141    -4.1249    -0.0672 C.3          1    LIG   0.0000
  31 C31          5.7818    -2.0794    -1.3047 C.3          1    LIG   0.0000
  32 N32          5.0685     5.3379    -1.1676 N.2          1    LIG   0.0000
  33 C33          6.3284     5.6608    -0.9726 C.2          1    LIG   0.0000
  34 N34          7.1041     6.7517    -1.2866 N.2          1    LIG   0.0000
  35 H           10.1833     7.8931    -0.9712 H            1    LIG   0.0000
  36 H            9.2780     8.1651    -2.3028 H            1    LIG   0.0000
  37 H            8.8734     8.8643    -0.8836 H            1    LIG   0.0000
  38 H            9.9671     5.8133    -0.0062 H            1    LIG   0.0000
  39 H            9.8465     3.7607     0.9760 H            1    LIG   0.0000
  40 H            8.4164     3.4080     1.6812 H            1    LIG   0.0000
  41 H            8.8232     2.7060     0.2640 H            1    LIG   0.0000
  42 H            4.3968     1.7355     0.4026 H            1    LIG   0.0000
  43 H            1.1531     3.1009     0.0065 H            1    LIG   0.0000
  44 H           -0.2041     2.8978    -2.3618 H            1    LIG   0.0000
  45 H           -0.9926     4.2374    -1.8612 H            1    LIG   0.0000
  46 H           -2.4308     4.1132    -3.7374 H            1    LIG   0.0000
  47 H           -0.8802     4.1594    -4.2474 H            1    LIG   0.0000
  48 H           -2.7931     0.6939    -4.2838 H            1    LIG   0.0000
  49 H           -3.5881     2.0240    -3.7688 H            1    LIG   0.0000
  50 H           -2.9755     0.7259    -1.8974 H            1    LIG   0.0000
  51 H           -1.4128     0.7465    -2.3712 H            1    LIG   0.0000
  52 H           -0.8766    -0.5231     0.0068 H            1    LIG   0.0000
  53 H            1.2156    -1.6919    -0.0170 H            1    LIG   0.0000
  54 H            4.4746    -0.1392    -0.0415 H            1    LIG   0.0000
  55 H            3.1715    -2.4625    -0.8569 H            1    LIG   0.0000
  56 H            3.1871    -2.4705     0.7760 H            1    LIG   0.0000
  57 H            5.5596    -2.2673     0.7542 H            1    LIG   0.0000
  58 H            6.0628    -4.4410    -0.0779 H            1    LIG   0.0000
  59 H            4.6567    -4.4707     0.7520 H            1    LIG   0.0000
  60 H            4.6410    -4.4627    -0.8809 H            1    LIG   0.0000
  61 H            6.7305    -2.3955    -1.3154 H            1    LIG   0.0000
  62 H            5.3087    -2.4173    -2.1184 H            1    LIG   0.0000
  63 H            5.7636    -1.0796    -1.2996 H            1    LIG   0.0000
@<TRIPOS>BOND
   1        1        2 1
   2        2        3 1
   3        3        4 2
   4        4        5 1
   5        4        6 1
   6        6        7 1
   7        7        8 2
   8        8        9 1
   9        9       10 2
  10        9       11 am
  11       11       12 1
  12       12       13 ar
  13       13       14 ar
  14       14       15 1
  15       15       16 2
  16       15       17 2
  17       15       18 1
  18       18       19 1
  19       19       20 1
  20       20       21 1
  21       21       22 1
  22       22       23 1
  23       23       18 1
  24       14       24 ar
  25       24       25 ar
  26       25       26 ar
  27       26       12 ar
  28       26       27 1
  29       27       28 1
  30       28       29 1
  31       29       30 1
  32       29       31 1
  33        8       32 1
  34       32       33 2
  35       33        6 1
  36       33       34 1
  37       34        2 2
  38        1       35 1
  39        1       36 1
  40        1       37 1
  41        3       38 1
  42        5       39 1
  43        5       40 1
  44        5       41 1
  45       11       42 1
  46       13       43 1
  47       19       44 1
  48       19       45 1
  49       20       46 1
  50       20       47 1
  51       22       48 1
  52       22       49 1
  53       23       50 1
  54       23       51 1
  55       24       52 1
  56       25       53 1
  57       27       54 1
  58       28       55 1
  59       28       56 1
  60       29       57 1
  61       30       58 1
  62       30       59 1
  63       30       60 1
  64       31       61 1
  65       31       62 1
  66       31       63 1

@<TRIPOS>MOLECULE

  63   66
SMALL
USER_CHARGES
@<TRIPOS>ATOM
   1 C1           9.2548     8.0443    -1.3104 C.3          1    LIG   0.0000
   2 C2           8.3874     6.8435    -0.9660 C.2          1    LIG   0.0000
   3 C3           9.0014     5.7743    -0.2629 C.2          1    LIG   0.0000
   4 C4           8.2302     4.6879     0.0528 C.2          1    LIG   0.0000
   5 C5           8.8851     3.5427     0.8081 C.3          1    LIG   0.0000
   6 N6           6.9098     4.6388    -0.3019 N.pl3        1    LIG   0.0000
   7 N7           6.0169     3.6968    -0.0960 N.2          1    LIG   0.0000
   8 C8           4.8857     4.1035    -0.6165 C.2          1    LIG   0.0000
   9 C9           3.6391     3.3633    -0.6088 C.2          1    LIG   0.0000
  10 O10          2.6590     3.8333    -1.1173 O.2          1    LIG   0.0000
  11 N11          3.5801     2.1272    -0.0211 N.am         1    LIG   0.0000
  12 C12          2.3765     1.4125    -0.0137 C.ar         1    LIG   0.0000
  13 C13          1.1683     2.1010     0.0014 C.ar         1    LIG   0.0000
  14 C14         -0.0185     1.3758     0.0093 C.ar         1    LIG   0.0000
  15 S15         -1.5352     2.2275     0.0286 S.o2         1    LIG   0.0000
  16 O16         -1.3847     3.4912    -0.6452 O.2          1    LIG   0.0000
  17 O17         -2.5360     1.4408    -0.6445 O.2          1    LIG   0.0000
  18 N18         -2.0314     2.5066     1.6977 N.3          1    LIG   0.0000
  19 C19         -2.2270     1.2287     2.3988 C.3          1    LIG   0.0000
  20 C20         -2.6617     1.4880     3.8326 C.3          1    LIG   0.0000
  21 O21         -1.6889     2.2822     4.4961 O.3          1    LIG   0.0000
  22 C22         -1.4961     3.5346     3.8551 C.3          1    LIG   0.0000
  23 C23         -1.0478     3.3294     2.4172 C.3          1    LIG   0.0000
  24 C24         -0.0151    -0.0154     0.0019 C.ar         1    LIG   0.0000
  25 C25          1.2000    -0.6920    -0.0125 C.ar         1    LIG   0.0000
  26 C26          2.3937     0.0225    -0.0207 C.ar         1    LIG   0.0000
  27 N27          3.6179    -0.6549    -0.0358 N.pl3        1    LIG   0.0000
  28 C28          3.6446    -2.1247    -0.0433 C.3          1    LIG   0.0000
  29 C29          5.0865    -2.6051    -0.0595 C.3          1    LIG   0.0000
  30 C30          5.1141    -4.1249    -0.0672 C.3          1    LIG   0.0000
  31 C31          5.7818    -2.0794    -1.3047 C.3          1    LIG   0.0000
  32 N32          5.0685     5.3379    -1.1676 N.2          1    LIG   0.0000
  33 C33          6.3284     5.6608    -0.9726 C.2          1    LIG   0.0000
  34 N34          7.1041     6.7517    -1.2866 N.2          1    LIG   0.0000
  35 H           10.1833     7.8931    -0.9712 H            1    LIG   0.0000
  36 H            9.2780     8.1651    -2.3028 H            1    LIG   0.0000
  37 H            8.8734     8.8643    -0.8836 H            1    LIG   0.0000
  38 H            9.9671     5.8133    -0.0062 H            1    LIG   0.0000
  39 H            9.8465     3.7607     0.9760 H            1    LIG   0.0000
  40 H            8.4164     3.4080     1.6812 H            1    LIG   0.0000
  41 H            8.8232     2.7060     0.2640 H            1    LIG   0.0000
  42 H            4.3968     1.7355     0.4026 H            1    LIG   0.0000
  43 H            1.1531     3.1009     0.0065 H            1    LIG   0.0000
  44 H           -1.3685     0.7160     2.3999 H            1    LIG   0.0000
  45 H           -2.9321     0.6972     1.9293 H            1    LIG   0.0000
  46 H           -3.5382     1.9693     3.8316 H            1    LIG   0.0000
  47 H           -2.7608     0.6159     4.3119 H            1    LIG   0.0000
  48 H           -0.7969     4.0528     4.3476 H            1    LIG   0.0000
  49 H           -2.3562     4.0447     3.8626 H            1    LIG   0.0000
  50 H           -0.9654     4.2179     1.9657 H            1    LIG   0.0000
  51 H           -0.1607     2.8680     2.4093 H            1    LIG   0.0000
  52 H           -0.8766    -0.5231     0.0068 H            1    LIG   0.0000
  53 H            1.2156    -1.6919    -0.0170 H            1    LIG   0.0000
  54 H            4.4746    -0.1392    -0.0415 H            1    LIG   0.0000
  55 H            3.1715    -2.4625    -0.8569 H            1    LIG   0.0000
  56 H            3.1871    -2.4705     0.7760 H            1    LIG   0.0000
  57 H            5.5596    -2.2673     0.7542 H            1    LIG   0.0000
  58 H            6.0628    -4.4410    -0.0779 H            1    LIG   0.0000
  59 H            4.6567    -4.4707     0.7520 H            1    LIG   0.0000
  60 H            4.6410    -4.4627    -0.8809 H            1    LIG   0.0000
  61 H            6.7305    -2.3955    -1.3154 H            1    LIG   0.0000
  62 H            5.3087    -2.4173    -2.1184 H            1    LIG   0.0000
  63 H            5.7636    -1.0796    -1.2996 H            1    LIG   0.0000
@<TRIPOS>BOND
   1        1        2 1
   2        2        3 1
   3        3        4 2
   4        4        5 1
   5        4        6 1
   6        6        7 1
   7        7        8 2
   8        8        9 1
   9        9       10 2
  10        9       11 am
  11       11       12 1
  12       12       13 ar
  13       13       14 ar
  14       14       15 1
  15       15       16 2
  16       15       17 2
  17       15       18 1
  18       18       19 1
  19       19       20 1
  20       20       21 1
  21       21       22 1
  22       22       23 1
  23       23       18 1
  24       14       24 ar
  25       24       25 ar
  26       25       26 ar
  27       26       12 ar
  28       26       27 1
  29       27       28 1
  30       28       29 1
  31       29       30 1
  32       29       31 1
  33        8       32 1
  34       32       33 2
  35       33        6 1
  36       33       34 1
  37       34        2 2
  38        1       35 1
  39        1       36 1
  40        1       37 1
  41        3       38 1
  42        5       39 1
  43        5       40 1
  44        5       41 1
  45       11       42 1
  46       13       43 1
  47       19       44 1
  48       19       45 1
  49       20       46 1
  50       20       47 1
  51       22       48 1
  52       22       49 1
  53       23       50 1
  54       23       51 1
  55       24       52 1
  56       25       53 1
  57       27       54 1
  58       28       55 1
  59       28       56 1
  60       29       57 1
  61       30       58 1
  62       30       59 1
  63       30       60 1
  64       31       61 1
  65       31       62 1
  66       31       63 1

@<TRIPOS>MOLECULE

  63   66
SMALL
USER_CHARGES
@<TRIPOS>ATOM
   1 C1          -1.6087     2.9322     5.8927 C.3          1    LIG   0.0000
   2 C2          -0.3090     3.2205     5.1576 C.2          1    LIG   0.0000
   3 C3           0.5883     4.1438     5.7547 C.2          1    LIG   0.0000
   4 C4           1.7619     4.4111     5.1020 C.2          1    LIG   0.0000
   5 C5           2.7257     5.3978     5.7411 C.3          1    LIG   0.0000
   6 N6           2.0550     3.8053     3.9108 N.pl3        1    LIG   0.0000
   7 N7           3.1120     3.9304     3.1400 N.2          1    LIG   0.0000
   8 C8           2.9416     3.1462     2.1047 C.2          1    LIG   0.0000
   9 C9           3.8755     2.9819     1.0080 C.2          1    LIG   0.0000
  10 O10          4.9073     3.5946     1.0017 O.2          1    LIG   0.0000
  11 N11          3.5801     2.1272    -0.0211 N.am         1    LIG   0.0000
  12 C12          2.3765     1.4125    -0.0137 C.ar         1    LIG   0.0000
  13 C13          1.1683     2.1010     0.0014 C.ar         1    LIG   0.0000
  14 C14         -0.0185     1.3758     0.0093 C.ar         1    LIG   0.0000
  15 S15         -1.5352     2.2275     0.0286 S.o2         1    LIG   0.0000
  16 O16         -2.5227     1.4337     0.7130 O.2          1    LIG   0.0000
  17 O17         -1.3714     3.4841     0.7124 O.2          1    LIG   0.0000
  18 N18         -2.0641     2.5239    -1.6274 N.3          1    LIG   0.0000
  19 C19         -1.0885     3.3639    -2.3385 C.3          1    LIG   0.0000
  20 C20         -1.5638     3.6155    -3.7607 C.3          1    LIG   0.0000
  21 O21         -1.7485     2.3788    -4.4342 O.3          1    LIG   0.0000
  22 C22         -2.7049     1.5552    -3.7835 C.3          1    LIG   0.0000
  23 C23         -2.2686     1.2637    -2.3568 C.3          1    LIG   0.0000
  24 C24         -0.0151    -0.0154     0.0019 C.ar         1    LIG   0.0000
  25 C25          1.2000    -0.6920    -0.0125 C.ar         1    LIG   0.0000
  26 C26          2.3937     0.0225    -0.0207 C.ar         1    LIG   0.0000
  27 N27          3.6179    -0.6549    -0.0358 N.pl3        1    LIG   0.0000
  28 C28          3.6446    -2.1247    -0.0433 C.3          1    LIG   0.0000
  29 C29          5.0865    -2.6051    -0.0595 C.3          1    LIG   0.0000
  30 C30          5.1141    -4.1249    -0.0672 C.3          1    LIG   0.0000
  31 C31          5.7818    -2.0794    -1.3047 C.3          1    LIG   0.0000
  32 N32          1.7423     2.5072     2.2239 N.2          1    LIG   0.0000
  33 C33          1.1961     2.9254     3.3449 C.2          1    LIG   0.0000
  34 N34          0.0193     2.6569     4.0032 N.2          1    LIG   0.0000
  35 H           -1.6403     3.4679     6.7365 H            1    LIG   0.0000
  36 H           -2.3831     3.1809     5.3109 H            1    LIG   0.0000
  37 H           -1.6575     1.9582     6.1142 H            1    LIG   0.0000
  38 H            0.3703     4.5854     6.6250 H            1    LIG   0.0000
  39 H            2.3394     5.7318     6.6008 H            1    LIG   0.0000
  40 H            3.5975     4.9426     5.9220 H            1    LIG   0.0000
  41 H            2.8742     6.1680     5.1208 H            1    LIG   0.0000
  42 H            4.2242     2.0138    -0.7775 H            1    LIG   0.0000
  43 H            1.1531     3.1009     0.0065 H            1    LIG   0.0000
  44 H           -0.2041     2.8978    -2.3618 H            1    LIG   0.0000
  45 H           -0.9926     4.2374    -1.8612 H            1    LIG   0.0000
  46 H           -2.4308     4.1132    -3.7374 H            1    LIG   0.0000
  47 H           -0.8802     4.1594    -4.2474 H            1    LIG   0.0000
  48 H           -2.7931     0.6939    -4.2838 H            1    LIG   0.0000
  49 H           -3.5881     2.0240    -3.7688 H            1    LIG   0.0000
  50 H           -2.9755     0.7259    -1.8974 H            1    LIG   0.0000
  51 H           -1.4128     0.7465    -2.3712 H            1    LIG   0.0000
  52 H           -0.8766    -0.5231     0.0068 H            1    LIG   0.0000
  53 H            1.2156    -1.6919    -0.0170 H            1    LIG   0.0000
  54 H            4.4746    -0.1392    -0.0415 H            1    LIG   0.0000
  55 H            3.1715    -2.4625    -0.8569 H            1    LIG   0.0000
  56 H            3.1871    -2.4705     0.7760 H            1    LIG   0.0000
  57 H            5.5596    -2.2673     0.7542 H            1    LIG   0.0000
  58 H            6.0628    -4.4410    -0.0779 H            1    LIG   0.0000
  59 H            4.6567    -4.4707     0.7520 H            1    LIG   0.0000
  60 H            4.6410    -4.4627    -0.8809 H            1    LIG   0.0000
  61 H            6.7305    -2.3955    -1.3154 H            1    LIG   0.0000
  62 H            5.3087    -2.4173    -2.1184 H            1    LIG   0.0000
  63 H            5.7636    -1.0796    -1.2996 H            1    LIG   0.0000
@<TRIPOS>BOND
   1        1        2 1
   2        2        3 1
   3        3        4 2
   4        4        5 1
   5        4        6 1
   6        6        7 1
   7        7        8 2
   8        8        9 1
   9        9       10 2
  10        9       11 am
  11       11       12 1
  12       12       13 ar
  13       13       14 ar
  14       14       15 1
  15       15       16 2
  16       15       17 2
  17       15       18 1
  18       18       19 1
  19       19       20 1
  20       20       21 1
  21       21       22 1
  22       22       23 1
  23       23       18 1
  24       14       24 ar
  25       24       25 ar
  26       25       26 ar
  27       26       12 ar
  28       26       27 1
  29       27       28 1
  30       28       29 1
  31       29       30 1
  32       29       31 1
  33        8       32 1
  34       32       33 2
  35       33        6 1
  36       33       34 1
  37       34        2 2
  38        1       35 1
  39        1       36 1
  40        1       37 1
  41        3       38 1
  42        5       39 1
  43        5       40 1
  44        5       41 1
  45       11       42 1
  46       13       43 1
  47       19       44 1
  48       19       45 1
  49       20       46 1
  50       20       47 1
  51       22       48 1
  52       22       49 1
  53       23       50 1
  54       23       51 1
  55       24       52 1
  56       25       53 1
  57       27       54 1
  58       28       55 1
  59       28       56 1
  60       29       57 1
  61       30       58 1
  62       30       59 1
  63       30       60 1
  64       31       61 1
  65       31       62 1
  66       31       63 1

@<TRIPOS>MOLECULE

  63   66
SMALL
USER_CHARGES
@<TRIPOS>ATOM
   1 C1           0.0550     4.6687     7.0494 C.3          1    LIG   0.0000
   2 C2           0.5083     4.0720     5.7260 C.2          1    LIG   0.0000
   3 C3          -0.3611     3.1438     5.0960 C.2          1    LIG   0.0000
   4 C4           0.0364     2.6001     3.9039 C.2          1    LIG   0.0000
   5 C5          -0.8944     1.6076     3.2261 C.3          1    LIG   0.0000
   6 N6           1.2359     2.9433     3.3424 N.pl3        1    LIG   0.0000
   7 N7           1.7891     2.5349     2.2225 N.2          1    LIG   0.0000
   8 C8           2.9416     3.1462     2.1047 C.2          1    LIG   0.0000
   9 C9           3.8755     2.9819     1.0080 C.2          1    LIG   0.0000
  10 O10          4.9073     3.5946     1.0017 O.2          1    LIG   0.0000
  11 N11          3.5801     2.1272    -0.0211 N.am         1    LIG   0.0000
  12 C12          2.3765     1.4125    -0.0137 C.ar         1    LIG   0.0000
  13 C13          1.1683     2.1010     0.0014 C.ar         1    LIG   0.0000
  14 C14         -0.0185     1.3758     0.0093 C.ar         1    LIG   0.0000
  15 S15         -1.5352     2.2275     0.0286 S.o2         1    LIG   0.0000
  16 O16         -2.5227     1.4337     0.7130 O.2          1    LIG   0.0000
  17 O17         -1.3714     3.4841     0.7124 O.2          1    LIG   0.0000
  18 N18         -2.0641     2.5239    -1.6274 N.3          1    LIG   0.0000
  19 C19         -1.0885     3.3639    -2.3385 C.3          1    LIG   0.0000
  20 C20         -1.5638     3.6155    -3.7607 C.3          1    LIG   0.0000
  21 O21         -1.7485     2.3788    -4.4342 O.3          1    LIG   0.0000
  22 C22         -2.7049     1.5552    -3.7835 C.3          1    LIG   0.0000
  23 C23         -2.2686     1.2637    -2.3568 C.3          1    LIG   0.0000
  24 C24         -0.0151    -0.0154     0.0019 C.ar         1    LIG   0.0000
  25 C25          1.2000    -0.6920    -0.0125 C.ar         1    LIG   0.0000
  26 C26          2.3937     0.0225    -0.0207 C.ar         1    LIG   0.0000
  27 N27          3.6179    -0.6549    -0.0358 N.pl3        1    LIG   0.0000
  28 C28          3.6446    -2.1247    -0.0433 C.3          1    LIG   0.0000
  29 C29          5.0865    -2.6051    -0.0595 C.3          1    LIG   0.0000
  30 C30          5.1141    -4.1249    -0.0672 C.3          1    LIG   0.0000
  31 C31          5.7818    -2.0794    -1.3047 C.3          1    LIG   0.0000
  32 N32          3.1226     3.9644     3.1811 N.2          1    LIG   0.0000
  33 C33          2.0620     3.8289     3.9469 C.2          1    LIG   0.0000
  34 N34          1.6598     4.3753     5.1427 N.2          1    LIG   0.0000
  35 H           -0.8402     4.2961     7.2938 H            1    LIG   0.0000
  36 H            0.7174     4.4397     7.7626 H            1    LIG   0.0000
  37 H           -0.0103     5.6628     6.9619 H            1    LIG   0.0000
  38 H           -1.2366     2.8946     5.5099 H            1    LIG   0.0000
  39 H           -1.7153     1.4859     3.7840 H            1    LIG   0.0000
  40 H           -1.1525     1.9548     2.3245 H            1    LIG   0.0000
  41 H           -0.4276     0.7291     3.1239 H            1    LIG   0.0000
  42 H            4.2242     2.0138    -0.7775 H            1    LIG   0.0000
  43 H            1.1531     3.1009     0.0065 H            1    LIG   0.0000
  44 H           -0.2041     2.8978    -2.3618 H            1    LIG   0.0000
  45 H           -0.9926     4.2374    -1.8612 H            1    LIG   0.0000
  46 H           -2.4308     4.1132    -3.7374 H            1    LIG   0.0000
  47 H           -0.8802     4.1594    -4.2474 H            1    LIG   0.0000
  48 H           -2.7931     0.6939    -4.2838 H            1    LIG   0.0000
  49 H           -3.5881     2.0240    -3.7688 H            1    LIG   0.0000
  50 H           -2.9755     0.7259    -1.8974 H            1    LIG   0.0000
  51 H           -1.4128     0.7465    -2.3712 H            1    LIG   0.0000
  52 H           -0.8766    -0.5231     0.0068 H            1    LIG   0.0000
  53 H            1.2156    -1.6919    -0.0170 H            1    LIG   0.0000
  54 H            4.4746    -0.1392    -0.0415 H            1    LIG   0.0000
  55 H            3.1715    -2.4625    -0.8569 H            1    LIG   0.0000
  56 H            3.1871    -2.4705     0.7760 H            1    LIG   0.0000
  57 H            5.5596    -2.2673     0.7542 H            1    LIG   0.0000
  58 H            6.0628    -4.4410    -0.0779 H            1    LIG   0.0000
  59 H            4.6567    -4.4707     0.7520 H            1    LIG   0.0000
  60 H            4.6410    -4.4627    -0.8809 H            1    LIG   0.0000
  61 H            6.7305    -2.3955    -1.3154 H            1    LIG   0.0000
  62 H            5.3087    -2.4173    -2.1184 H            1    LIG   0.0000
  63 H            5.7636    -1.0796    -1.2996 H            1    LIG   0.0000
@<TRIPOS>BOND
   1        1        2 1
   2        2        3 1
   3        3        4 2
   4        4        5 1
   5        4        6 1
   6        6        7 1
   7        7        8 2
   8        8        9 1
   9        9       10 2
  10        9       11 am
  11       11       12 1
  12       12       13 ar
  13       13       14 ar
  14       14       15 1
  15       15       16 2
  16       15       17 2
  17       15       18 1
  18       18       19 1
  19       19       20 1
  20       20       21 1
  21       21       22 1
  22       22       23 1
  23       23       18 1
  24       14       24 ar
  25       24       25 ar
  26       25       26 ar
  27       26       12 ar
  28       26       27 1
  29       27       28 1
  30       28       29 1
  31       29       30 1
  32       29       31 1
  33        8       32 1
  34       32       33 2
  35       33        6 1
  36       33       34 1
  37       34        2 2
  38        1       35 1
  39        1       36 1
  40        1       37 1
  41        3       38 1
  42        5       39 1
  43        5       40 1
  44        5       41 1
  45       11       42 1
  46       13       43 1
  47       19       44 1
  48       19       45 1
  49       20       46 1
  50       20       47 1
  51       22       48 1
  52       22       49 1
  53       23       50 1
  54       23       51 1
  55       24       52 1
  56       25       53 1
  57       27       54 1
  58       28       55 1
  59       28       56 1
  60       29       57 1
  61       30       58 1
  62       30       59 1
  63       30       60 1
  64       31       61 1
  65       31       62 1
  66       31       63 1

@<TRIPOS>MOLECULE

  63   66
SMALL
USER_CHARGES
@<TRIPOS>ATOM
   1 C1          -0.8729     5.1022     6.1942 C.3          1    LIG   0.0000
   2 C2           0.0530     4.2854     5.3063 C.2          1    LIG   0.0000
   3 C3           0.1715     2.8991     5.5863 C.2          1    LIG   0.0000
   4 C4           1.0021     2.1535     4.7933 C.2          1    LIG   0.0000
   5 C5           1.1287     0.6679     5.0897 C.3          1    LIG   0.0000
   6 N6           1.6951     2.7319     3.7651 N.pl3        1    LIG   0.0000
   7 N7           2.5319     2.1945     2.9060 N.2          1    LIG   0.0000
   8 C8           2.9416     3.1462     2.1047 C.2          1    LIG   0.0000
   9 C9           3.8755     2.9819     1.0080 C.2          1    LIG   0.0000
  10 O10          4.9073     3.5946     1.0017 O.2          1    LIG   0.0000
  11 N11          3.5801     2.1272    -0.0211 N.am         1    LIG   0.0000
  12 C12          2.3765     1.4125    -0.0137 C.ar         1    LIG   0.0000
  13 C13          1.1683     2.1010     0.0014 C.ar         1    LIG   0.0000
  14 C14         -0.0185     1.3758     0.0093 C.ar         1    LIG   0.0000
  15 S15         -1.5352     2.2275     0.0286 S.o2         1    LIG   0.0000
  16 O16         -1.3847     3.4912    -0.6452 O.2          1    LIG   0.0000
  17 O17         -2.5360     1.4408    -0.6445 O.2          1    LIG   0.0000
  18 N18         -2.0316     2.5067     1.6984 N.3          1    LIG   0.0000
  19 C19         -2.2305     1.2355     2.4103 C.3          1    LIG   0.0000
  20 C20         -2.6603     1.4947     3.8456 C.3          1    LIG   0.0000
  21 O21         -3.8477     2.2740     3.8712 O.3          1    LIG   0.0000
  22 C22         -3.6979     3.5154     3.1972 C.3          1    LIG   0.0000
  23 C23         -3.2803     3.2816     1.7539 C.3          1    LIG   0.0000
  24 C24         -0.0151    -0.0154     0.0019 C.ar         1    LIG   0.0000
  25 C25          1.2000    -0.6920    -0.0125 C.ar         1    LIG   0.0000
  26 C26          2.3937     0.0225    -0.0207 C.ar         1    LIG   0.0000
  27 N27          3.6179    -0.6549    -0.0358 N.pl3        1    LIG   0.0000
  28 C28          3.6446    -2.1247    -0.0433 C.3          1    LIG   0.0000
  29 C29          5.0865    -2.6051    -0.0595 C.3          1    LIG   0.0000
  30 C30          5.1141    -4.1249    -0.0672 C.3          1    LIG   0.0000
  31 C31          5.7818    -2.0794    -1.3047 C.3          1    LIG   0.0000
  32 N32          2.3472     4.3192     2.4676 N.2          1    LIG   0.0000
  33 C33          1.5791     4.0546     3.5019 C.2          1    LIG   0.0000
  34 N34          0.7428     4.8009     4.2980 N.2          1    LIG   0.0000
  35 H           -1.2842     4.5066     6.8842 H            1    LIG   0.0000
  36 H           -0.3497     5.8244     6.6464 H            1    LIG   0.0000
  37 H           -1.5939     5.5126     5.6358 H            1    LIG   0.0000
  38 H           -0.3358     2.4799     6.3392 H            1    LIG   0.0000
  39 H            0.5508     0.4336     5.8715 H            1    LIG   0.0000
  40 H            0.8371     0.1425     4.2904 H            1    LIG   0.0000
  41 H            2.0813     0.4503     5.3022 H            1    LIG   0.0000
  42 H            4.2242     2.0138    -0.7775 H            1    LIG   0.0000
  43 H            1.1531     3.1009     0.0065 H            1    LIG   0.0000
  44 H           -1.3735     0.7203     2.4107 H            1    LIG   0.0000
  45 H           -2.9385     0.7044     1.9450 H            1    LIG   0.0000
  46 H           -2.8289     0.6212     4.3023 H            1    LIG   0.0000
  47 H           -1.9327     1.9861     4.3243 H            1    LIG   0.0000
  48 H           -2.9981     4.0600     3.6595 H            1    LIG   0.0000
  49 H           -4.5682     4.0075     3.2138 H            1    LIG   0.0000
  50 H           -4.0020     2.7771     1.2801 H            1    LIG   0.0000
  51 H           -3.1403     4.1640     1.3047 H            1    LIG   0.0000
  52 H           -0.8766    -0.5231     0.0068 H            1    LIG   0.0000
  53 H            1.2156    -1.6919    -0.0170 H            1    LIG   0.0000
  54 H            4.4746    -0.1392    -0.0415 H            1    LIG   0.0000
  55 H            3.1715    -2.4625    -0.8569 H            1    LIG   0.0000
  56 H            3.1871    -2.4705     0.7760 H            1    LIG   0.0000
  57 H            5.5596    -2.2673     0.7542 H            1    LIG   0.0000
  58 H            6.0628    -4.4410    -0.0779 H            1    LIG   0.0000
  59 H            4.6567    -4.4707     0.7520 H            1    LIG   0.0000
  60 H            4.6410    -4.4627    -0.8809 H            1    LIG   0.0000
  61 H            6.7305    -2.3955    -1.3154 H            1    LIG   0.0000
  62 H            5.3087    -2.4173    -2.1184 H            1    LIG   0.0000
  63 H            5.7636    -1.0796    -1.2996 H            1    LIG   0.0000
@<TRIPOS>BOND
   1        1        2 1
   2        2        3 1
   3        3        4 2
   4        4        5 1
   5        4        6 1
   6        6        7 1
   7        7        8 2
   8        8        9 1
   9        9       10 2
  10        9       11 am
  11       11       12 1
  12       12       13 ar
  13       13       14 ar
  14       14       15 1
  15       15       16 2
  16       15       17 2
  17       15       18 1
  18       18       19 1
  19       19       20 1
  20       20       21 1
  21       21       22 1
  22       22       23 1
  23       23       18 1
  24       14       24 ar
  25       24       25 ar
  26       25       26 ar
  27       26       12 ar
  28       26       27 1
  29       27       28 1
  30       28       29 1
  31       29       30 1
  32       29       31 1
  33        8       32 1
  34       32       33 2
  35       33        6 1
  36       33       34 1
  37       34        2 2
  38        1       35 1
  39        1       36 1
  40        1       37 1
  41        3       38 1
  42        5       39 1
  43        5       40 1
  44        5       41 1
  45       11       42 1
  46       13       43 1
  47       19       44 1
  48       19       45 1
  49       20       46 1
  50       20       47 1
  51       22       48 1
  52       22       49 1
  53       23       50 1
  54       23       51 1
  55       24       52 1
  56       25       53 1
  57       27       54 1
  58       28       55 1
  59       28       56 1
  60       29       57 1
  61       30       58 1
  62       30       59 1
  63       30       60 1
  64       31       61 1
  65       31       62 1
  66       31       63 1

@<TRIPOS>MOLECULE

  63   66
SMALL
USER_CHARGES
@<TRIPOS>ATOM
   1 C1          -0.6808     2.4987     6.7479 C.3          1    LIG   0.0000
   2 C2           0.1463     3.0071     5.5773 C.2          1    LIG   0.0000
   3 C3           0.0557     4.3885     5.2645 C.2          1    LIG   0.0000
   4 C4           0.7962     4.8577     4.2127 C.2          1    LIG   0.0000
   5 C5           0.7027     6.3375     3.8775 C.3          1    LIG   0.0000
   6 N6           1.5958     4.0166     3.4881 N.pl3        1    LIG   0.0000
   7 N7           2.3692     4.2707     2.4564 N.2          1    LIG   0.0000
   8 C8           2.9416     3.1462     2.1047 C.2          1    LIG   0.0000
   9 C9           3.8755     2.9819     1.0080 C.2          1    LIG   0.0000
  10 O10          4.9073     3.5946     1.0017 O.2          1    LIG   0.0000
  11 N11          3.5801     2.1272    -0.0211 N.am         1    LIG   0.0000
  12 C12          2.3765     1.4125    -0.0137 C.ar         1    LIG   0.0000
  13 C13          1.1683     2.1010     0.0014 C.ar         1    LIG   0.0000
  14 C14         -0.0185     1.3758     0.0093 C.ar         1    LIG   0.0000
  15 S15         -1.5352     2.2275     0.0286 S.o2         1    LIG   0.0000
  16 O16         -1.3847     3.4912    -0.6452 O.2          1    LIG   0.0000
  17 O17         -2.5360     1.4408    -0.6445 O.2          1    LIG   0.0000
  18 N18         -2.0316     2.5067     1.6984 N.3          1    LIG   0.0000
  19 C19         -2.2305     1.2355     2.4103 C.3          1    LIG   0.0000
  20 C20         -2.6603     1.4947     3.8456 C.3          1    LIG   0.0000
  21 O21         -3.8477     2.2740     3.8712 O.3          1    LIG   0.0000
  22 C22         -3.6979     3.5154     3.1972 C.3          1    LIG   0.0000
  23 C23         -3.2803     3.2816     1.7539 C.3          1    LIG   0.0000
  24 C24         -0.0151    -0.0154     0.0019 C.ar         1    LIG   0.0000
  25 C25          1.2000    -0.6920    -0.0125 C.ar         1    LIG   0.0000
  26 C26          2.3937     0.0225    -0.0207 C.ar         1    LIG   0.0000
  27 N27          3.6179    -0.6549    -0.0358 N.pl3        1    LIG   0.0000
  28 C28          3.6446    -2.1247    -0.0433 C.3          1    LIG   0.0000
  29 C29          5.0865    -2.6051    -0.0595 C.3          1    LIG   0.0000
  30 C30          5.1141    -4.1249    -0.0672 C.3          1    LIG   0.0000
  31 C31          5.7818    -2.0794    -1.3047 C.3          1    LIG   0.0000
  32 N32          2.5177     2.1524     2.9374 N.2          1    LIG   0.0000
  33 C33          1.6790     2.6998     3.7899 C.2          1    LIG   0.0000
  34 N34          0.9364     2.2313     4.8479 N.2          1    LIG   0.0000
  35 H           -1.1963     3.2574     7.1462 H            1    LIG   0.0000
  36 H           -1.3160     1.7962     6.4271 H            1    LIG   0.0000
  37 H           -0.0739     2.1084     7.4402 H            1    LIG   0.0000
  38 H           -0.5306     5.0001     5.7957 H            1    LIG   0.0000
  39 H            0.0732     6.7842     4.5133 H            1    LIG   0.0000
  40 H            1.6079     6.7549     3.9561 H            1    LIG   0.0000
  41 H            0.3653     6.4468     2.9424 H            1    LIG   0.0000
  42 H            4.2242     2.0138    -0.7775 H            1    LIG   0.0000
  43 H            1.1531     3.1009     0.0065 H            1    LIG   0.0000
  44 H           -1.3735     0.7203     2.4107 H            1    LIG   0.0000
  45 H           -2.9385     0.7044     1.9450 H            1    LIG   0.0000
  46 H           -2.8289     0.6212     4.3023 H            1    LIG   0.0000
  47 H           -1.9327     1.9861     4.3243 H            1    LIG   0.0000
  48 H           -2.9981     4.0600     3.6595 H            1    LIG   0.0000
  49 H           -4.5682     4.0075     3.2138 H            1    LIG   0.0000
  50 H           -4.0020     2.7771     1.2801 H            1    LIG   0.0000
  51 H           -3.1403     4.1640     1.3047 H            1    LIG   0.0000
  52 H           -0.8766    -0.5231     0.0068 H            1    LIG   0.0000
  53 H            1.2156    -1.6919    -0.0170 H            1    LIG   0.0000
  54 H            4.4746    -0.1392    -0.0415 H            1    LIG   0.0000
  55 H            3.1715    -2.4625    -0.8569 H            1    LIG   0.0000
  56 H            3.1871    -2.4705     0.7760 H            1    LIG   0.0000
  57 H            5.5596    -2.2673     0.7542 H            1    LIG   0.0000
  58 H            6.0628    -4.4410    -0.0779 H            1    LIG   0.0000
  59 H            4.6567    -4.4707     0.7520 H            1    LIG   0.0000
  60 H            4.6410    -4.4627    -0.8809 H            1    LIG   0.0000
  61 H            6.7305    -2.3955    -1.3154 H            1    LIG   0.0000
  62 H            5.3087    -2.4173    -2.1184 H            1    LIG   0.0000
  63 H            5.7636    -1.0796    -1.2996 H            1    LIG   0.0000
@<TRIPOS>BOND
   1        1        2 1
   2        2        3 1
   3        3        4 2
   4        4        5 1
   5        4        6 1
   6        6        7 1
   7        7        8 2
   8        8        9 1
   9        9       10 2
  10        9       11 am
  11       11       12 1
  12       12       13 ar
  13       13       14 ar
  14       14       15 1
  15       15       16 2
  16       15       17 2
  17       15       18 1
  18       18       19 1
  19       19       20 1
  20       20       21 1
  21       21       22 1
  22       22       23 1
  23       23       18 1
  24       14       24 ar
  25       24       25 ar
  26       25       26 ar
  27       26       12 ar
  28       26       27 1
  29       27       28 1
  30       28       29 1
  31       29       30 1
  32       29       31 1
  33        8       32 1
  34       32       33 2
  35       33        6 1
  36       33       34 1
  37       34        2 2
  38        1       35 1
  39        1       36 1
  40        1       37 1
  41        3       38 1
  42        5       39 1
  43        5       40 1
  44        5       41 1
  45       11       42 1
  46       13       43 1
  47       19       44 1
  48       19       45 1
  49       20       46 1
  50       20       47 1
  51       22       48 1
  52       22       49 1
  53       23       50 1
  54       23       51 1
  55       24       52 1
  56       25       53 1
  57       27       54 1
  58       28       55 1
  59       28       56 1
  60       29       57 1
  61       30       58 1
  62       30       59 1
  63       30       60 1
  64       31       61 1
  65       31       62 1
  66       31       63 1

@<TRIPOS>MOLECULE

  63   66
SMALL
USER_CHARGES
@<TRIPOS>ATOM
   1 C1          10.3432     6.2229    -0.1940 C.3          1    LIG   0.0000
   2 C2           9.3506     5.2356     0.4000 C.2          1    LIG   0.0000
   3 C3           9.7031     4.6121     1.6253 C.2          1    LIG   0.0000
   4 C4           8.8171     3.7215     2.1698 C.2          1    LIG   0.0000
   5 C5           9.1915     3.0544     3.4834 C.3          1    LIG   0.0000
   6 N6           7.6307     3.4438     1.5474 N.pl3        1    LIG   0.0000
   7 N7           6.6634     2.6287     1.9036 N.2          1    LIG   0.0000
   8 C8           5.7277     2.7020     0.9898 C.2          1    LIG   0.0000
   9 C9           4.4812     1.9618     0.9975 C.2          1    LIG   0.0000
  10 O10          4.2387     1.2042     1.8960 O.2          1    LIG   0.0000
  11 N11          3.5801     2.1272    -0.0211 N.am         1    LIG   0.0000
  12 C12          2.3765     1.4125    -0.0137 C.ar         1    LIG   0.0000
  13 C13          1.1683     2.1010     0.0014 C.ar         1    LIG   0.0000
  14 C14         -0.0185     1.3758     0.0093 C.ar         1    LIG   0.0000
  15 S15         -1.5352     2.2275     0.0286 S.o2         1    LIG   0.0000
  16 O16         -2.5227     1.4337     0.7130 O.2          1    LIG   0.0000
  17 O17         -1.3714     3.4841     0.7124 O.2          1    LIG   0.0000
  18 N18         -2.0641     2.5239    -1.6274 N.3          1    LIG   0.0000
  19 C19         -1.0885     3.3639    -2.3385 C.3          1    LIG   0.0000
  20 C20         -1.5638     3.6155    -3.7607 C.3          1    LIG   0.0000
  21 O21         -1.7485     2.3788    -4.4342 O.3          1    LIG   0.0000
  22 C22         -2.7049     1.5552    -3.7835 C.3          1    LIG   0.0000
  23 C23         -2.2686     1.2637    -2.3568 C.3          1    LIG   0.0000
  24 C24         -0.0151    -0.0154     0.0019 C.ar         1    LIG   0.0000
  25 C25          1.2000    -0.6920    -0.0125 C.ar         1    LIG   0.0000
  26 C26          2.3937     0.0225    -0.0207 C.ar         1    LIG   0.0000
  27 N27          3.6179    -0.6549    -0.0358 N.pl3        1    LIG   0.0000
  28 C28          4.5585    -0.4484    -1.1464 C.3          1    LIG   0.0000
  29 C29          5.8011    -1.2946    -0.9219 C.3          1    LIG   0.0000
  30 C30          6.7738    -1.0811    -2.0703 C.3          1    LIG   0.0000
  31 C31          6.4624    -0.8871     0.3846 C.3          1    LIG   0.0000
  32 N32          6.1146     3.5886     0.0280 N.2          1    LIG   0.0000
  33 C33          7.2987     4.0407     0.3788 C.2          1    LIG   0.0000
  34 N34          8.1890     4.9363    -0.1650 N.2          1    LIG   0.0000
  35 H           11.1440     6.2894     0.4012 H            1    LIG   0.0000
  36 H           10.6263     5.9068    -1.0996 H            1    LIG   0.0000
  37 H            9.9120     7.1215    -0.2744 H            1    LIG   0.0000
  38 H           10.5716     4.8168     2.0768 H            1    LIG   0.0000
  39 H           10.0885     3.3821     3.7799 H            1    LIG   0.0000
  40 H            8.5082     3.2793     4.1781 H            1    LIG   0.0000
  41 H            9.2239     2.0631     3.3565 H            1    LIG   0.0000
  42 H            3.7821     2.7585    -0.7699 H            1    LIG   0.0000
  43 H            1.1531     3.1009     0.0065 H            1    LIG   0.0000
  44 H           -0.2041     2.8978    -2.3618 H            1    LIG   0.0000
  45 H           -0.9926     4.2374    -1.8612 H            1    LIG   0.0000
  46 H           -2.4308     4.1132    -3.7374 H            1    LIG   0.0000
  47 H           -0.8802     4.1594    -4.2474 H            1    LIG   0.0000
  48 H           -2.7931     0.6939    -4.2838 H            1    LIG   0.0000
  49 H           -3.5881     2.0240    -3.7688 H            1    LIG   0.0000
  50 H           -2.9755     0.7259    -1.8974 H            1    LIG   0.0000
  51 H           -1.4128     0.7465    -2.3712 H            1    LIG   0.0000
  52 H           -0.8766    -0.5231     0.0068 H            1    LIG   0.0000
  53 H            1.2156    -1.6919    -0.0170 H            1    LIG   0.0000
  54 H            3.8529    -1.2796     0.7089 H            1    LIG   0.0000
  55 H            4.8160     0.5169    -1.1900 H            1    LIG   0.0000
  56 H            4.1235    -0.7165    -2.0059 H            1    LIG   0.0000
  57 H            5.5436    -2.2599    -0.8783 H            1    LIG   0.0000
  58 H            7.5912    -1.6378    -1.9226 H            1    LIG   0.0000
  59 H            6.3387    -1.3491    -2.9298 H            1    LIG   0.0000
  60 H            7.0312    -0.1158    -2.1139 H            1    LIG   0.0000
  61 H            7.2799    -1.4438     0.5323 H            1    LIG   0.0000
  62 H            6.7199     0.0782     0.3410 H            1    LIG   0.0000
  63 H            5.8225    -1.0276     1.1401 H            1    LIG   0.0000
@<TRIPOS>BOND
   1        1        2 1
   2        2        3 1
   3        3        4 2
   4        4        5 1
   5        4        6 1
   6        6        7 1
   7        7        8 2
   8        8        9 1
   9        9       10 2
  10        9       11 am
  11       11       12 1
  12       12       13 ar
  13       13       14 ar
  14       14       15 1
  15       15       16 2
  16       15       17 2
  17       15       18 1
  18       18       19 1
  19       19       20 1
  20       20       21 1
  21       21       22 1
  22       22       23 1
  23       23       18 1
  24       14       24 ar
  25       24       25 ar
  26       25       26 ar
  27       26       12 ar
  28       26       27 1
  29       27       28 1
  30       28       29 1
  31       29       30 1
  32       29       31 1
  33        8       32 1
  34       32       33 2
  35       33        6 1
  36       33       34 1
  37       34        2 2
  38        1       35 1
  39        1       36 1
  40        1       37 1
  41        3       38 1
  42        5       39 1
  43        5       40 1
  44        5       41 1
  45       11       42 1
  46       13       43 1
  47       19       44 1
  48       19       45 1
  49       20       46 1
  50       20       47 1
  51       22       48 1
  52       22       49 1
  53       23       50 1
  54       23       51 1
  55       24       52 1
  56       25       53 1
  57       27       54 1
  58       28       55 1
  59       28       56 1
  60       29       57 1
  61       30       58 1
  62       30       59 1
  63       30       60 1
  64       31       61 1
  65       31       62 1
  66       31       63 1

@<TRIPOS>MOLECULE

  63   66
SMALL
USER_CHARGES
@<TRIPOS>ATOM
   1 C1           1.8495    -2.8922     5.8403 C.3          1    LIG   0.0000
   2 C2           2.7210    -1.8827     5.1094 C.2          1    LIG   0.0000
   3 C3           3.9709    -1.5533     5.6954 C.2          1    LIG   0.0000
   4 C4           4.7643    -0.6457     5.0462 C.2          1    LIG   0.0000
   5 C5           6.1047    -0.2933     5.6707 C.3          1    LIG   0.0000
   6 N6           4.3595    -0.0759     3.8700 N.pl3        1    LIG   0.0000
   7 N7           4.9676     0.8051     3.1078 N.2          1    LIG   0.0000
   8 C8           4.1882     1.0465     2.0830 C.2          1    LIG   0.0000
   9 C9           4.4812     1.9618     0.9975 C.2          1    LIG   0.0000
  10 O10          5.5130     2.5745     0.9911 O.2          1    LIG   0.0000
  11 N11          3.5801     2.1272    -0.0211 N.am         1    LIG   0.0000
  12 C12          2.3765     1.4125    -0.0137 C.ar         1    LIG   0.0000
  13 C13          1.1683     2.1010     0.0014 C.ar         1    LIG   0.0000
  14 C14         -0.0185     1.3758     0.0093 C.ar         1    LIG   0.0000
  15 S15         -1.5352     2.2275     0.0286 S.o2         1    LIG   0.0000
  16 O16         -2.5227     1.4337     0.7130 O.2          1    LIG   0.0000
  17 O17         -1.3714     3.4841     0.7124 O.2          1    LIG   0.0000
  18 N18         -2.0641     2.5239    -1.6274 N.3          1    LIG   0.0000
  19 C19         -1.0885     3.3639    -2.3385 C.3          1    LIG   0.0000
  20 C20         -1.5638     3.6155    -3.7607 C.3          1    LIG   0.0000
  21 O21         -1.7485     2.3788    -4.4342 O.3          1    LIG   0.0000
  22 C22         -2.7049     1.5552    -3.7835 C.3          1    LIG   0.0000
  23 C23         -2.2686     1.2637    -2.3568 C.3          1    LIG   0.0000
  24 C24         -0.0151    -0.0154     0.0019 C.ar         1    LIG   0.0000
  25 C25          1.2000    -0.6920    -0.0125 C.ar         1    LIG   0.0000
  26 C26          2.3937     0.0225    -0.0207 C.ar         1    LIG   0.0000
  27 N27          3.6179    -0.6549    -0.0358 N.pl3        1    LIG   0.0000
  28 C28          3.6446    -2.1247    -0.0433 C.3          1    LIG   0.0000
  29 C29          5.0865    -2.6051    -0.0595 C.3          1    LIG   0.0000
  30 C30          5.1141    -4.1249    -0.0672 C.3          1    LIG   0.0000
  31 C31          5.7818    -2.0794    -1.3047 C.3          1    LIG   0.0000
  32 N32          3.0546     0.2970     2.2007 N.2          1    LIG   0.0000
  33 C33          3.1664    -0.3930     3.3148 C.2          1    LIG   0.0000
  34 N34          2.3724    -1.3062     3.9673 N.2          1    LIG   0.0000
  35 H            2.3133    -3.1908     6.6744 H            1    LIG   0.0000
  36 H            0.9759    -2.4677     6.0784 H            1    LIG   0.0000
  37 H            1.6863    -3.6818     5.2488 H            1    LIG   0.0000
  38 H            4.2631    -1.9710     6.5558 H            1    LIG   0.0000
  39 H            6.2218    -0.8071     6.5206 H            1    LIG   0.0000
  40 H            6.8404    -0.5278     5.0354 H            1    LIG   0.0000
  41 H            6.1336     0.6868     5.8671 H            1    LIG   0.0000
  42 H            3.7821     2.7585    -0.7699 H            1    LIG   0.0000
  43 H            1.1531     3.1009     0.0065 H            1    LIG   0.0000
  44 H           -0.2041     2.8978    -2.3618 H            1    LIG   0.0000
  45 H           -0.9926     4.2374    -1.8612 H            1    LIG   0.0000
  46 H           -2.4308     4.1132    -3.7374 H            1    LIG   0.0000
  47 H           -0.8802     4.1594    -4.2474 H            1    LIG   0.0000
  48 H           -2.7931     0.6939    -4.2838 H            1    LIG   0.0000
  49 H           -3.5881     2.0240    -3.7688 H            1    LIG   0.0000
  50 H           -2.9755     0.7259    -1.8974 H            1    LIG   0.0000
  51 H           -1.4128     0.7465    -2.3712 H            1    LIG   0.0000
  52 H           -0.8766    -0.5231     0.0068 H            1    LIG   0.0000
  53 H            1.2156    -1.6919    -0.0170 H            1    LIG   0.0000
  54 H            4.4746    -0.1392    -0.0415 H            1    LIG   0.0000
  55 H            3.1715    -2.4625    -0.8569 H            1    LIG   0.0000
  56 H            3.1871    -2.4705     0.7760 H            1    LIG   0.0000
  57 H            5.5596    -2.2673     0.7542 H            1    LIG   0.0000
  58 H            6.0628    -4.4410    -0.0779 H            1    LIG   0.0000
  59 H            4.6567    -4.4707     0.7520 H            1    LIG   0.0000
  60 H            4.6410    -4.4627    -0.8809 H            1    LIG   0.0000
  61 H            6.7305    -2.3955    -1.3154 H            1    LIG   0.0000
  62 H            5.3087    -2.4173    -2.1184 H            1    LIG   0.0000
  63 H            5.7636    -1.0796    -1.2996 H            1    LIG   0.0000
@<TRIPOS>BOND
   1        1        2 1
   2        2        3 1
   3        3        4 2
   4        4        5 1
   5        4        6 1
   6        6        7 1
   7        7        8 2
   8        8        9 1
   9        9       10 2
  10        9       11 am
  11       11       12 1
  12       12       13 ar
  13       13       14 ar
  14       14       15 1
  15       15       16 2
  16       15       17 2
  17       15       18 1
  18       18       19 1
  19       19       20 1
  20       20       21 1
  21       21       22 1
  22       22       23 1
  23       23       18 1
  24       14       24 ar
  25       24       25 ar
  26       25       26 ar
  27       26       12 ar
  28       26       27 1
  29       27       28 1
  30       28       29 1
  31       29       30 1
  32       29       31 1
  33        8       32 1
  34       32       33 2
  35       33        6 1
  36       33       34 1
  37       34        2 2
  38        1       35 1
  39        1       36 1
  40        1       37 1
  41        3       38 1
  42        5       39 1
  43        5       40 1
  44        5       41 1
  45       11       42 1
  46       13       43 1
  47       19       44 1
  48       19       45 1
  49       20       46 1
  50       20       47 1
  51       22       48 1
  52       22       49 1
  53       23       50 1
  54       23       51 1
  55       24       52 1
  56       25       53 1
  57       27       54 1
  58       28       55 1
  59       28       56 1
  60       29       57 1
  61       30       58 1
  62       30       59 1
  63       30       60 1
  64       31       61 1
  65       31       62 1
  66       31       63 1

@<TRIPOS>MOLECULE

  63   66
SMALL
USER_CHARGES
@<TRIPOS>ATOM
   1 C1           1.8495    -2.8922     5.8403 C.3          1    LIG   0.0000
   2 C2           2.7210    -1.8827     5.1094 C.2          1    LIG   0.0000
   3 C3           3.9709    -1.5533     5.6954 C.2          1    LIG   0.0000
   4 C4           4.7643    -0.6457     5.0462 C.2          1    LIG   0.0000
   5 C5           6.1047    -0.2933     5.6707 C.3          1    LIG   0.0000
   6 N6           4.3595    -0.0759     3.8700 N.pl3        1    LIG   0.0000
   7 N7           4.9676     0.8051     3.1078 N.2          1    LIG   0.0000
   8 C8           4.1882     1.0465     2.0830 C.2          1    LIG   0.0000
   9 C9           4.4812     1.9618     0.9975 C.2          1    LIG   0.0000
  10 O10          5.5130     2.5745     0.9911 O.2          1    LIG   0.0000
  11 N11          3.5801     2.1272    -0.0211 N.am         1    LIG   0.0000
  12 C12          2.3765     1.4125    -0.0137 C.ar         1    LIG   0.0000
  13 C13          1.1683     2.1010     0.0014 C.ar         1    LIG   0.0000
  14 C14         -0.0185     1.3758     0.0093 C.ar         1    LIG   0.0000
  15 S15         -1.5352     2.2275     0.0286 S.o2         1    LIG   0.0000
  16 O16         -1.3847     3.4912    -0.6452 O.2          1    LIG   0.0000
  17 O17         -2.5360     1.4408    -0.6445 O.2          1    LIG   0.0000
  18 N18         -2.0314     2.5066     1.6977 N.3          1    LIG   0.0000
  19 C19         -2.2270     1.2287     2.3988 C.3          1    LIG   0.0000
  20 C20         -2.6617     1.4880     3.8326 C.3          1    LIG   0.0000
  21 O21         -1.6889     2.2822     4.4961 O.3          1    LIG   0.0000
  22 C22         -1.4961     3.5346     3.8551 C.3          1    LIG   0.0000
  23 C23         -1.0478     3.3294     2.4172 C.3          1    LIG   0.0000
  24 C24         -0.0151    -0.0154     0.0019 C.ar         1    LIG   0.0000
  25 C25          1.2000    -0.6920    -0.0125 C.ar         1    LIG   0.0000
  26 C26          2.3937     0.0225    -0.0207 C.ar         1    LIG   0.0000
  27 N27          3.6179    -0.6549    -0.0358 N.pl3        1    LIG   0.0000
  28 C28          3.6446    -2.1247    -0.0433 C.3          1    LIG   0.0000
  29 C29          5.0865    -2.6051    -0.0595 C.3          1    LIG   0.0000
  30 C30          5.1141    -4.1249    -0.0672 C.3          1    LIG   0.0000
  31 C31          5.7818    -2.0794    -1.3047 C.3          1    LIG   0.0000
  32 N32          3.0546     0.2970     2.2007 N.2          1    LIG   0.0000
  33 C33          3.1664    -0.3930     3.3148 C.2          1    LIG   0.0000
  34 N34          2.3724    -1.3062     3.9673 N.2          1    LIG   0.0000
  35 H            2.3133    -3.1908     6.6744 H            1    LIG   0.0000
  36 H            0.9759    -2.4677     6.0784 H            1    LIG   0.0000
  37 H            1.6863    -3.6818     5.2488 H            1    LIG   0.0000
  38 H            4.2631    -1.9710     6.5558 H            1    LIG   0.0000
  39 H            6.2218    -0.8071     6.5206 H            1    LIG   0.0000
  40 H            6.8404    -0.5278     5.0354 H            1    LIG   0.0000
  41 H            6.1336     0.6868     5.8671 H            1    LIG   0.0000
  42 H            3.7821     2.7585    -0.7699 H            1    LIG   0.0000
  43 H            1.1531     3.1009     0.0065 H            1    LIG   0.0000
  44 H           -1.3685     0.7160     2.3999 H            1    LIG   0.0000
  45 H           -2.9321     0.6972     1.9293 H            1    LIG   0.0000
  46 H           -3.5382     1.9693     3.8316 H            1    LIG   0.0000
  47 H           -2.7608     0.6159     4.3119 H            1    LIG   0.0000
  48 H           -0.7969     4.0528     4.3476 H            1    LIG   0.0000
  49 H           -2.3562     4.0447     3.8626 H            1    LIG   0.0000
  50 H           -0.9654     4.2179     1.9657 H            1    LIG   0.0000
  51 H           -0.1607     2.8680     2.4093 H            1    LIG   0.0000
  52 H           -0.8766    -0.5231     0.0068 H            1    LIG   0.0000
  53 H            1.2156    -1.6919    -0.0170 H            1    LIG   0.0000
  54 H            4.4746    -0.1392    -0.0415 H            1    LIG   0.0000
  55 H            3.1715    -2.4625    -0.8569 H            1    LIG   0.0000
  56 H            3.1871    -2.4705     0.7760 H            1    LIG   0.0000
  57 H            5.5596    -2.2673     0.7542 H            1    LIG   0.0000
  58 H            6.0628    -4.4410    -0.0779 H            1    LIG   0.0000
  59 H            4.6567    -4.4707     0.7520 H            1    LIG   0.0000
  60 H            4.6410    -4.4627    -0.8809 H            1    LIG   0.0000
  61 H            6.7305    -2.3955    -1.3154 H            1    LIG   0.0000
  62 H            5.3087    -2.4173    -2.1184 H            1    LIG   0.0000
  63 H            5.7636    -1.0796    -1.2996 H            1    LIG   0.0000
@<TRIPOS>BOND
   1        1        2 1
   2        2        3 1
   3        3        4 2
   4        4        5 1
   5        4        6 1
   6        6        7 1
   7        7        8 2
   8        8        9 1
   9        9       10 2
  10        9       11 am
  11       11       12 1
  12       12       13 ar
  13       13       14 ar
  14       14       15 1
  15       15       16 2
  16       15       17 2
  17       15       18 1
  18       18       19 1
  19       19       20 1
  20       20       21 1
  21       21       22 1
  22       22       23 1
  23       23       18 1
  24       14       24 ar
  25       24       25 ar
  26       25       26 ar
  27       26       12 ar
  28       26       27 1
  29       27       28 1
  30       28       29 1
  31       29       30 1
  32       29       31 1
  33        8       32 1
  34       32       33 2
  35       33        6 1
  36       33       34 1
  37       34        2 2
  38        1       35 1
  39        1       36 1
  40        1       37 1
  41        3       38 1
  42        5       39 1
  43        5       40 1
  44        5       41 1
  45       11       42 1
  46       13       43 1
  47       19       44 1
  48       19       45 1
  49       20       46 1
  50       20       47 1
  51       22       48 1
  52       22       49 1
  53       23       50 1
  54       23       51 1
  55       24       52 1
  56       25       53 1
  57       27       54 1
  58       28       55 1
  59       28       56 1
  60       29       57 1
  61       30       58 1
  62       30       59 1
  63       30       60 1
  64       31       61 1
  65       31       62 1
  66       31       63 1

@<TRIPOS>MOLECULE

  63   66
SMALL
USER_CHARGES
@<TRIPOS>ATOM
   1 C1           4.1943    -2.3028     6.9700 C.3          1    LIG   0.0000
   2 C2           3.8727    -1.5943     5.6633 C.2          1    LIG   0.0000
   3 C3           2.6315    -1.8963     5.0447 C.2          1    LIG   0.0000
   4 C4           2.3309    -1.2643     3.8679 C.2          1    LIG   0.0000
   5 C5           1.0009    -1.5844     3.2050 C.3          1    LIG   0.0000
   6 N6           3.2040    -0.3713     3.3091 N.pl3        1    LIG   0.0000
   7 N7           3.1008     0.3256     2.1997 N.2          1    LIG   0.0000
   8 C8           4.1882     1.0465     2.0830 C.2          1    LIG   0.0000
   9 C9           4.4812     1.9618     0.9975 C.2          1    LIG   0.0000
  10 O10          5.5130     2.5745     0.9911 O.2          1    LIG   0.0000
  11 N11          3.5801     2.1272    -0.0211 N.am         1    LIG   0.0000
  12 C12          2.3765     1.4125    -0.0137 C.ar         1    LIG   0.0000
  13 C13          1.1683     2.1010     0.0014 C.ar         1    LIG   0.0000
  14 C14         -0.0185     1.3758     0.0093 C.ar         1    LIG   0.0000
  15 S15         -1.5352     2.2275     0.0286 S.o2         1    LIG   0.0000
  16 O16         -2.5227     1.4337     0.7130 O.2          1    LIG   0.0000
  17 O17         -1.3714     3.4841     0.7124 O.2          1    LIG   0.0000
  18 N18         -2.0641     2.5239    -1.6274 N.3          1    LIG   0.0000
  19 C19         -1.0885     3.3639    -2.3385 C.3          1    LIG   0.0000
  20 C20         -1.5638     3.6155    -3.7607 C.3          1    LIG   0.0000
  21 O21         -1.7485     2.3788    -4.4342 O.3          1    LIG   0.0000
  22 C22         -2.7049     1.5552    -3.7835 C.3          1    LIG   0.0000
  23 C23         -2.2686     1.2637    -2.3568 C.3          1    LIG   0.0000
  24 C24         -0.0151    -0.0154     0.0019 C.ar         1    LIG   0.0000
  25 C25          1.2000    -0.6920    -0.0125 C.ar         1    LIG   0.0000
  26 C26          2.3937     0.0225    -0.0207 C.ar         1    LIG   0.0000
  27 N27          3.6179    -0.6549    -0.0358 N.pl3        1    LIG   0.0000
  28 C28          3.6446    -2.1247    -0.0433 C.3          1    LIG   0.0000
  29 C29          5.0865    -2.6051    -0.0595 C.3          1    LIG   0.0000
  30 C30          5.1141    -4.1249    -0.0672 C.3          1    LIG   0.0000
  31 C31          5.7818    -2.0794    -1.3047 C.3          1    LIG   0.0000
  32 N32          5.0026     0.7982     3.1489 N.2          1    LIG   0.0000
  33 C33          4.3867    -0.0864     3.9025 C.2          1    LIG   0.0000
  34 N34          4.6854    -0.7206     5.0853 N.2          1    LIG   0.0000
  35 H            3.4398    -2.9124     7.2131 H            1    LIG   0.0000
  36 H            5.0328    -2.8369     6.8620 H            1    LIG   0.0000
  37 H            4.3218    -1.6250     7.6941 H            1    LIG   0.0000
  38 H            1.9963    -2.5504     5.4556 H            1    LIG   0.0000
  39 H            0.5051    -2.2537     3.7583 H            1    LIG   0.0000
  40 H            0.4577    -0.7484     3.1270 H            1    LIG   0.0000
  41 H            1.1650    -1.9615     2.2935 H            1    LIG   0.0000
  42 H            3.7821     2.7585    -0.7699 H            1    LIG   0.0000
  43 H            1.1531     3.1009     0.0065 H            1    LIG   0.0000
  44 H           -0.2041     2.8978    -2.3618 H            1    LIG   0.0000
  45 H           -0.9926     4.2374    -1.8612 H            1    LIG   0.0000
  46 H           -2.4308     4.1132    -3.7374 H            1    LIG   0.0000
  47 H           -0.8802     4.1594    -4.2474 H            1    LIG   0.0000
  48 H           -2.7931     0.6939    -4.2838 H            1    LIG   0.0000
  49 H           -3.5881     2.0240    -3.7688 H            1    LIG   0.0000
  50 H           -2.9755     0.7259    -1.8974 H            1    LIG   0.0000
  51 H           -1.4128     0.7465    -2.3712 H            1    LIG   0.0000
  52 H           -0.8766    -0.5231     0.0068 H            1    LIG   0.0000
  53 H            1.2156    -1.6919    -0.0170 H            1    LIG   0.0000
  54 H            4.4746    -0.1392    -0.0415 H            1    LIG   0.0000
  55 H            3.1715    -2.4625    -0.8569 H            1    LIG   0.0000
  56 H            3.1871    -2.4705     0.7760 H            1    LIG   0.0000
  57 H            5.5596    -2.2673     0.7542 H            1    LIG   0.0000
  58 H            6.0628    -4.4410    -0.0779 H            1    LIG   0.0000
  59 H            4.6567    -4.4707     0.7520 H            1    LIG   0.0000
  60 H            4.6410    -4.4627    -0.8809 H            1    LIG   0.0000
  61 H            6.7305    -2.3955    -1.3154 H            1    LIG   0.0000
  62 H            5.3087    -2.4173    -2.1184 H            1    LIG   0.0000
  63 H            5.7636    -1.0796    -1.2996 H            1    LIG   0.0000
@<TRIPOS>BOND
   1        1        2 1
   2        2        3 1
   3        3        4 2
   4        4        5 1
   5        4        6 1
   6        6        7 1
   7        7        8 2
   8        8        9 1
   9        9       10 2
  10        9       11 am
  11       11       12 1
  12       12       13 ar
  13       13       14 ar
  14       14       15 1
  15       15       16 2
  16       15       17 2
  17       15       18 1
  18       18       19 1
  19       19       20 1
  20       20       21 1
  21       21       22 1
  22       22       23 1
  23       23       18 1
  24       14       24 ar
  25       24       25 ar
  26       25       26 ar
  27       26       12 ar
  28       26       27 1
  29       27       28 1
  30       28       29 1
  31       29       30 1
  32       29       31 1
  33        8       32 1
  34       32       33 2
  35       33        6 1
  36       33       34 1
  37       34        2 2
  38        1       35 1
  39        1       36 1
  40        1       37 1
  41        3       38 1
  42        5       39 1
  43        5       40 1
  44        5       41 1
  45       11       42 1
  46       13       43 1
  47       19       44 1
  48       19       45 1
  49       20       46 1
  50       20       47 1
  51       22       48 1
  52       22       49 1
  53       23       50 1
  54       23       51 1
  55       24       52 1
  56       25       53 1
  57       27       54 1
  58       28       55 1
  59       28       56 1
  60       29       57 1
  61       30       58 1
  62       30       59 1
  63       30       60 1
  64       31       61 1
  65       31       62 1
  66       31       63 1

@<TRIPOS>MOLECULE

  63   66
SMALL
USER_CHARGES
@<TRIPOS>ATOM
   1 C1           4.1943    -2.3028     6.9700 C.3          1    LIG   0.0000
   2 C2           3.8727    -1.5943     5.6633 C.2          1    LIG   0.0000
   3 C3           2.6315    -1.8963     5.0447 C.2          1    LIG   0.0000
   4 C4           2.3309    -1.2643     3.8679 C.2          1    LIG   0.0000
   5 C5           1.0009    -1.5844     3.2050 C.3          1    LIG   0.0000
   6 N6           3.2040    -0.3713     3.3091 N.pl3        1    LIG   0.0000
   7 N7           3.1008     0.3256     2.1997 N.2          1    LIG   0.0000
   8 C8           4.1882     1.0465     2.0830 C.2          1    LIG   0.0000
   9 C9           4.4812     1.9618     0.9975 C.2          1    LIG   0.0000
  10 O10          5.5130     2.5745     0.9911 O.2          1    LIG   0.0000
  11 N11          3.5801     2.1272    -0.0211 N.am         1    LIG   0.0000
  12 C12          2.3765     1.4125    -0.0137 C.ar         1    LIG   0.0000
  13 C13          1.1683     2.1010     0.0014 C.ar         1    LIG   0.0000
  14 C14         -0.0185     1.3758     0.0093 C.ar         1    LIG   0.0000
  15 S15         -1.5352     2.2275     0.0286 S.o2         1    LIG   0.0000
  16 O16         -1.3847     3.4912    -0.6452 O.2          1    LIG   0.0000
  17 O17         -2.5360     1.4408    -0.6445 O.2          1    LIG   0.0000
  18 N18         -2.0314     2.5066     1.6977 N.3          1    LIG   0.0000
  19 C19         -2.2270     1.2287     2.3988 C.3          1    LIG   0.0000
  20 C20         -2.6617     1.4880     3.8326 C.3          1    LIG   0.0000
  21 O21         -1.6889     2.2822     4.4961 O.3          1    LIG   0.0000
  22 C22         -1.4961     3.5346     3.8551 C.3          1    LIG   0.0000
  23 C23         -1.0478     3.3294     2.4172 C.3          1    LIG   0.0000
  24 C24         -0.0151    -0.0154     0.0019 C.ar         1    LIG   0.0000
  25 C25          1.2000    -0.6920    -0.0125 C.ar         1    LIG   0.0000
  26 C26          2.3937     0.0225    -0.0207 C.ar         1    LIG   0.0000
  27 N27          3.6179    -0.6549    -0.0358 N.pl3        1    LIG   0.0000
  28 C28          3.6446    -2.1247    -0.0433 C.3          1    LIG   0.0000
  29 C29          5.0865    -2.6051    -0.0595 C.3          1    LIG   0.0000
  30 C30          5.1141    -4.1249    -0.0672 C.3          1    LIG   0.0000
  31 C31          5.7818    -2.0794    -1.3047 C.3          1    LIG   0.0000
  32 N32          5.0026     0.7982     3.1489 N.2          1    LIG   0.0000
  33 C33          4.3867    -0.0864     3.9025 C.2          1    LIG   0.0000
  34 N34          4.6854    -0.7206     5.0853 N.2          1    LIG   0.0000
  35 H            3.4398    -2.9124     7.2131 H            1    LIG   0.0000
  36 H            5.0328    -2.8369     6.8620 H            1    LIG   0.0000
  37 H            4.3218    -1.6250     7.6941 H            1    LIG   0.0000
  38 H            1.9963    -2.5504     5.4556 H            1    LIG   0.0000
  39 H            0.5051    -2.2537     3.7583 H            1    LIG   0.0000
  40 H            0.4577    -0.7484     3.1270 H            1    LIG   0.0000
  41 H            1.1650    -1.9615     2.2935 H            1    LIG   0.0000
  42 H            3.7821     2.7585    -0.7699 H            1    LIG   0.0000
  43 H            1.1531     3.1009     0.0065 H            1    LIG   0.0000
  44 H           -1.3685     0.7160     2.3999 H            1    LIG   0.0000
  45 H           -2.9321     0.6972     1.9293 H            1    LIG   0.0000
  46 H           -3.5382     1.9693     3.8316 H            1    LIG   0.0000
  47 H           -2.7608     0.6159     4.3119 H            1    LIG   0.0000
  48 H           -0.7969     4.0528     4.3476 H            1    LIG   0.0000
  49 H           -2.3562     4.0447     3.8626 H            1    LIG   0.0000
  50 H           -0.9654     4.2179     1.9657 H            1    LIG   0.0000
  51 H           -0.1607     2.8680     2.4093 H            1    LIG   0.0000
  52 H           -0.8766    -0.5231     0.0068 H            1    LIG   0.0000
  53 H            1.2156    -1.6919    -0.0170 H            1    LIG   0.0000
  54 H            4.4746    -0.1392    -0.0415 H            1    LIG   0.0000
  55 H            3.1715    -2.4625    -0.8569 H            1    LIG   0.0000
  56 H            3.1871    -2.4705     0.7760 H            1    LIG   0.0000
  57 H            5.5596    -2.2673     0.7542 H            1    LIG   0.0000
  58 H            6.0628    -4.4410    -0.0779 H            1    LIG   0.0000
  59 H            4.6567    -4.4707     0.7520 H            1    LIG   0.0000
  60 H            4.6410    -4.4627    -0.8809 H            1    LIG   0.0000
  61 H            6.7305    -2.3955    -1.3154 H            1    LIG   0.0000
  62 H            5.3087    -2.4173    -2.1184 H            1    LIG   0.0000
  63 H            5.7636    -1.0796    -1.2996 H            1    LIG   0.0000
@<TRIPOS>BOND
   1        1        2 1
   2        2        3 1
   3        3        4 2
   4        4        5 1
   5        4        6 1
   6        6        7 1
   7        7        8 2
   8        8        9 1
   9        9       10 2
  10        9       11 am
  11       11       12 1
  12       12       13 ar
  13       13       14 ar
  14       14       15 1
  15       15       16 2
  16       15       17 2
  17       15       18 1
  18       18       19 1
  19       19       20 1
  20       20       21 1
  21       21       22 1
  22       22       23 1
  23       23       18 1
  24       14       24 ar
  25       24       25 ar
  26       25       26 ar
  27       26       12 ar
  28       26       27 1
  29       27       28 1
  30       28       29 1
  31       29       30 1
  32       29       31 1
  33        8       32 1
  34       32       33 2
  35       33        6 1
  36       33       34 1
  37       34        2 2
  38        1       35 1
  39        1       36 1
  40        1       37 1
  41        3       38 1
  42        5       39 1
  43        5       40 1
  44        5       41 1
  45       11       42 1
  46       13       43 1
  47       19       44 1
  48       19       45 1
  49       20       46 1
  50       20       47 1
  51       22       48 1
  52       22       49 1
  53       23       50 1
  54       23       51 1
  55       24       52 1
  56       25       53 1
  57       27       54 1
  58       28       55 1
  59       28       56 1
  60       29       57 1
  61       30       58 1
  62       30       59 1
  63       30       60 1
  64       31       61 1
  65       31       62 1
  66       31       63 1

