@<TRIPOS>MOLECULE
*****
 63 66 0 0 0
SMALL
USER_CHARGES

@<TRIPOS>ATOM
      1 C1          9.2548    8.0443   -1.3104 C.3     1  LIG1        0.0000
      2 C2          8.3874    6.8435   -0.9660 C.2     1  LIG1        0.0000
      3 C3          9.0014    5.7743   -0.2629 C.2     1  LIG1        0.0000
      4 C4          8.2302    4.6879    0.0528 C.2     1  LIG1        0.0000
      5 C5          8.8851    3.5427    0.8081 C.3     1  LIG1        0.0000
      6 N6          6.9098    4.6388   -0.3019 N.pl3   1  LIG1        0.0000
      7 N7          6.0169    3.6968   -0.0960 N.2     1  LIG1        0.0000
      8 C8          4.8857    4.1035   -0.6165 C.2     1  LIG1        0.0000
      9 C9          3.6391    3.3633   -0.6088 C.2     1  LIG1        0.0000
     10 O10         2.6590    3.8333   -1.1173 O.2     1  LIG1        0.0000
     11 N11         3.5801    2.1272   -0.0211 N.am    1  LIG1        0.0000
     12 C12         2.3765    1.4125   -0.0137 C.3     1  LIG1        0.0000
     13 C13         1.1683    2.1010    0.0014 C.3     1  LIG1        0.0000
     14 C14        -0.0185    1.3758    0.0093 C.3     1  LIG1        0.0000
     15 S15        -1.5352    2.2275    0.0286 S.O2    1  LIG1        0.0000
     16 O16        -1.3847    3.4912   -0.6452 O.2     1  LIG1        0.0000
     17 O17        -2.5360    1.4408   -0.6445 O.2     1  LIG1        0.0000
     18 N18        -2.0314    2.5066    1.6977 N.3     1  LIG1        0.0000
     19 C19        -2.2270    1.2287    2.3988 C.3     1  LIG1        0.0000
     20 C20        -2.6617    1.4880    3.8326 C.3     1  LIG1        0.0000
     21 O21        -1.6889    2.2822    4.4961 O.3     1  LIG1        0.0000
     22 C22        -1.4961    3.5346    3.8551 C.3     1  LIG1        0.0000
     23 C23        -1.0478    3.3294    2.4172 C.3     1  LIG1        0.0000
     24 C24        -0.0151   -0.0154    0.0019 C.3     1  LIG1        0.0000
     25 C25         1.2000   -0.6920   -0.0125 C.3     1  LIG1        0.0000
     26 C26         2.3937    0.0225   -0.0207 C.3     1  LIG1        0.0000
     27 N27         3.6179   -0.6549   -0.0358 N.pl3   1  LIG1        0.0000
     28 C28         3.6446   -2.1247   -0.0433 C.3     1  LIG1        0.0000
     29 C29         5.0865   -2.6051   -0.0595 C.3     1  LIG1        0.0000
     30 C30         5.1141   -4.1249   -0.0672 C.3     1  LIG1        0.0000
     31 C31         5.7818   -2.0794   -1.3047 C.3     1  LIG1        0.0000
     32 N32         5.0685    5.3379   -1.1676 N.2     1  LIG1        0.0000
     33 C33         6.3284    5.6608   -0.9726 C.cat   1  LIG1        0.0000
     34 N34         7.1041    6.7517   -1.2866 N.2     1  LIG1        0.0000
     35 H          10.1833    7.8931   -0.9712 H       1  LIG1        0.0000
     36 H           9.2780    8.1651   -2.3028 H       1  LIG1        0.0000
     37 H           8.8734    8.8643   -0.8836 H       1  LIG1        0.0000
     38 H           9.9671    5.8133   -0.0062 H       1  LIG1        0.0000
     39 H           9.8465    3.7607    0.9760 H       1  LIG1        0.0000
     40 H           8.4164    3.4080    1.6812 H       1  LIG1        0.0000
     41 H           8.8232    2.7060    0.2640 H       1  LIG1        0.0000
     42 H           4.3968    1.7355    0.4026 H       1  LIG1        0.0000
     43 H           1.1531    3.1009    0.0065 H       1  LIG1        0.0000
     44 H          -1.3685    0.7160    2.3999 H       1  LIG1        0.0000
     45 H          -2.9321    0.6972    1.9293 H       1  LIG1        0.0000
     46 H          -3.5382    1.9693    3.8316 H       1  LIG1        0.0000
     47 H          -2.7608    0.6159    4.3119 H       1  LIG1        0.0000
     48 H          -0.7969    4.0528    4.3476 H       1  LIG1        0.0000
     49 H          -2.3562    4.0447    3.8626 H       1  LIG1        0.0000
     50 H          -0.9654    4.2179    1.9657 H       1  LIG1        0.0000
     51 H          -0.1607    2.8680    2.4093 H       1  LIG1        0.0000
     52 H          -0.8766   -0.5231    0.0068 H       1  LIG1        0.0000
     53 H           1.2156   -1.6919   -0.0170 H       1  LIG1        0.0000
     54 H           4.4746   -0.1392   -0.0415 H       1  LIG1        0.0000
     55 H           3.1715   -2.4625   -0.8569 H       1  LIG1        0.0000
     56 H           3.1871   -2.4705    0.7760 H       1  LIG1        0.0000
     57 H           5.5596   -2.2673    0.7542 H       1  LIG1        0.0000
     58 H           6.0628   -4.4410   -0.0779 H       1  LIG1        0.0000
     59 H           4.6567   -4.4707    0.7520 H       1  LIG1        0.0000
     60 H           4.6410   -4.4627   -0.8809 H       1  LIG1        0.0000
     61 H           6.7305   -2.3955   -1.3154 H       1  LIG1        0.0000
     62 H           5.3087   -2.4173   -2.1184 H       1  LIG1        0.0000
     63 H           5.7636   -1.0796   -1.2996 H       1  LIG1        0.0000
@<TRIPOS>BOND
     1     1     2    1
     2     2     3    1
     3     3     4    2
     4     4     5    1
     5     4     6    1
     6     6     7    1
     7     7     8    2
     8     8     9    1
     9     9    10    2
    10     9    11   am
    11    11    12    1
    12    12    13   ar
    13    13    14   ar
    14    14    15    1
    15    15    16    2
    16    15    17    2
    17    15    18    1
    18    18    19    1
    19    19    20    1
    20    20    21    1
    21    21    22    1
    22    22    23    1
    23    23    18    1
    24    14    24   ar
    25    24    25   ar
    26    25    26   ar
    27    26    12   ar
    28    26    27    1
    29    27    28    1
    30    28    29    1
    31    29    30    1
    32    29    31    1
    33     8    32    1
    34    32    33    2
    35    33     6    1
    36    33    34    1
    37    34     2    2
    38     1    35    1
    39     1    36    1
    40     1    37    1
    41     3    38    1
    42     5    39    1
    43     5    40    1
    44     5    41    1
    45    11    42    1
    46    13    43    1
    47    19    44    1
    48    19    45    1
    49    20    46    1
    50    20    47    1
    51    22    48    1
    52    22    49    1
    53    23    50    1
    54    23    51    1
    55    24    52    1
    56    25    53    1
    57    27    54    1
    58    28    55    1
    59    28    56    1
    60    29    57    1
    61    30    58    1
    62    30    59    1
    63    30    60    1
    64    31    61    1
    65    31    62    1
    66    31    63    1
