@<TRIPOS>MOLECULE
*****
 63 66 0 0 0
SMALL
USER_CHARGES

@<TRIPOS>ATOM
      1 C1         10.4429    6.0571    0.0166 C.3     1  LIG1        0.0000
      2 C2          8.9704    5.8685   -0.3135 C.2     1  LIG1        0.0000
      3 C3          8.3191    6.9155   -1.0163 C.2     1  LIG1        0.0000
      4 C4          6.9933    6.7567   -1.3192 C.2     1  LIG1        0.0000
      5 C5          6.2944    7.8758   -2.0742 C.3     1  LIG1        0.0000
      6 N6          6.3215    5.6227   -0.9522 N.pl3   1  LIG1        0.0000
      7 N7          5.0652    5.2886   -1.1449 N.2     1  LIG1        0.0000
      8 C8          4.8857    4.1035   -0.6165 C.2     1  LIG1        0.0000
      9 C9          3.6391    3.3633   -0.6088 C.2     1  LIG1        0.0000
     10 O10         2.6590    3.8333   -1.1173 O.2     1  LIG1        0.0000
     11 N11         3.5801    2.1272   -0.0211 N.am    1  LIG1        0.0000
     12 C12         2.3765    1.4125   -0.0137 C.3     1  LIG1        0.0000
     13 C13         1.1683    2.1010    0.0014 C.3     1  LIG1        0.0000
     14 C14        -0.0185    1.3758    0.0093 C.3     1  LIG1        0.0000
     15 S15        -1.5352    2.2275    0.0286 S.O2    1  LIG1        0.0000
     16 O16        -2.5227    1.4337    0.7130 O.2     1  LIG1        0.0000
     17 O17        -1.3714    3.4841    0.7124 O.2     1  LIG1        0.0000
     18 N18        -2.0641    2.5239   -1.6274 N.3     1  LIG1        0.0000
     19 C19        -1.0885    3.3639   -2.3385 C.3     1  LIG1        0.0000
     20 C20        -1.5638    3.6155   -3.7607 C.3     1  LIG1        0.0000
     21 O21        -1.7485    2.3788   -4.4342 O.3     1  LIG1        0.0000
     22 C22        -2.7049    1.5552   -3.7835 C.3     1  LIG1        0.0000
     23 C23        -2.2686    1.2637   -2.3568 C.3     1  LIG1        0.0000
     24 C24        -0.0151   -0.0154    0.0019 C.3     1  LIG1        0.0000
     25 C25         1.2000   -0.6920   -0.0125 C.3     1  LIG1        0.0000
     26 C26         2.3937    0.0225   -0.0207 C.3     1  LIG1        0.0000
     27 N27         3.6179   -0.6549   -0.0358 N.pl3   1  LIG1        0.0000
     28 C28         3.6446   -2.1247   -0.0433 C.3     1  LIG1        0.0000
     29 C29         5.0865   -2.6051   -0.0595 C.3     1  LIG1        0.0000
     30 C30         5.1141   -4.1249   -0.0672 C.3     1  LIG1        0.0000
     31 C31         5.7818   -2.0794   -1.3047 C.3     1  LIG1        0.0000
     32 N32         6.0619    3.6762   -0.0736 N.2     1  LIG1        0.0000
     33 C33         6.9467    4.6268   -0.2818 C.cat   1  LIG1        0.0000
     34 N34         8.2785    4.7874    0.0192 N.2     1  LIG1        0.0000
     35 H          10.7514    6.9429   -0.3302 H       1  LIG1        0.0000
     36 H          10.5691    6.0250    1.0081 H       1  LIG1        0.0000
     37 H          10.9765    5.3275   -0.4111 H       1  LIG1        0.0000
     38 H           8.8131    7.7433   -1.2820 H       1  LIG1        0.0000
     39 H           6.9444    8.6146   -2.2520 H       1  LIG1        0.0000
     40 H           5.9439    7.5240   -2.9422 H       1  LIG1        0.0000
     41 H           5.5351    8.2248   -1.5251 H       1  LIG1        0.0000
     42 H           4.3968    1.7355    0.4026 H       1  LIG1        0.0000
     43 H           1.1531    3.1009    0.0065 H       1  LIG1        0.0000
     44 H          -0.2041    2.8978   -2.3618 H       1  LIG1        0.0000
     45 H          -0.9926    4.2374   -1.8612 H       1  LIG1        0.0000
     46 H          -2.4308    4.1132   -3.7374 H       1  LIG1        0.0000
     47 H          -0.8802    4.1594   -4.2474 H       1  LIG1        0.0000
     48 H          -2.7931    0.6939   -4.2838 H       1  LIG1        0.0000
     49 H          -3.5881    2.0240   -3.7688 H       1  LIG1        0.0000
     50 H          -2.9755    0.7259   -1.8974 H       1  LIG1        0.0000
     51 H          -1.4128    0.7465   -2.3712 H       1  LIG1        0.0000
     52 H          -0.8766   -0.5231    0.0068 H       1  LIG1        0.0000
     53 H           1.2156   -1.6919   -0.0170 H       1  LIG1        0.0000
     54 H           4.4746   -0.1392   -0.0415 H       1  LIG1        0.0000
     55 H           3.1715   -2.4625   -0.8569 H       1  LIG1        0.0000
     56 H           3.1871   -2.4705    0.7760 H       1  LIG1        0.0000
     57 H           5.5596   -2.2673    0.7542 H       1  LIG1        0.0000
     58 H           6.0628   -4.4410   -0.0779 H       1  LIG1        0.0000
     59 H           4.6567   -4.4707    0.7520 H       1  LIG1        0.0000
     60 H           4.6410   -4.4627   -0.8809 H       1  LIG1        0.0000
     61 H           6.7305   -2.3955   -1.3154 H       1  LIG1        0.0000
     62 H           5.3087   -2.4173   -2.1184 H       1  LIG1        0.0000
     63 H           5.7636   -1.0796   -1.2996 H       1  LIG1        0.0000
@<TRIPOS>BOND
     1     1     2    1
     2     2     3    1
     3     3     4    2
     4     4     5    1
     5     4     6    1
     6     6     7    1
     7     7     8    2
     8     8     9    1
     9     9    10    2
    10     9    11   am
    11    11    12    1
    12    12    13   ar
    13    13    14   ar
    14    14    15    1
    15    15    16    2
    16    15    17    2
    17    15    18    1
    18    18    19    1
    19    19    20    1
    20    20    21    1
    21    21    22    1
    22    22    23    1
    23    23    18    1
    24    14    24   ar
    25    24    25   ar
    26    25    26   ar
    27    26    12   ar
    28    26    27    1
    29    27    28    1
    30    28    29    1
    31    29    30    1
    32    29    31    1
    33     8    32    1
    34    32    33    2
    35    33     6    1
    36    33    34    1
    37    34     2    2
    38     1    35    1
    39     1    36    1
    40     1    37    1
    41     3    38    1
    42     5    39    1
    43     5    40    1
    44     5    41    1
    45    11    42    1
    46    13    43    1
    47    19    44    1
    48    19    45    1
    49    20    46    1
    50    20    47    1
    51    22    48    1
    52    22    49    1
    53    23    50    1
    54    23    51    1
    55    24    52    1
    56    25    53    1
    57    27    54    1
    58    28    55    1
    59    28    56    1
    60    29    57    1
    61    30    58    1
    62    30    59    1
    63    30    60    1
    64    31    61    1
    65    31    62    1
    66    31    63    1
