@<TRIPOS>MOLECULE

  31   33
SMALL
USER_CHARGES
@<TRIPOS>ATOM
   1 C1           0.3843    -0.1048     1.8430 C.3          1    LIG   0.0000
   2 C2           1.0000     1.0000     1.0000 C.3          1    LIG   0.0000
   3 C3           1.8772     1.8772     1.8772 C.ar         1    LIG   0.0000
   4 C4           1.3259     2.9847     2.5125 C.ar         1    LIG   0.0000
   5 C5           2.1224     3.7925     3.3175 C.ar         1    LIG   0.0000
   6 C6           3.4683     3.4785     3.4750 C.ar         1    LIG   0.0000
   7 C7           4.3036     4.3183     4.3144 C.ar         1    LIG   0.0000
   8 N8           4.1580     5.6504     4.2856 N.ar         1    LIG   0.0000
   9 C9           4.9172     6.4466     5.0529 C.ar         1    LIG   0.0000
  10 N10          5.8415     5.9173     5.8681 N.ar         1    LIG   0.0000
  11 C11          6.0421     4.5957     5.9479 C.ar         1    LIG   0.0000
  12 C12          5.2656     3.7739     5.1586 C.ar         1    LIG   0.0000
  13 C13          5.6823     2.3395     5.4134 C.3          1    LIG   0.0000
  14 C14          6.7661     2.4899     6.4632 C.2          1    LIG   0.0000
  15 O15          7.3797     1.5810     6.9917 O.2          1    LIG   0.0000
  16 N16          6.9363     3.8542     6.7250 N.am         1    LIG   0.0000
  17 C17          4.0284     2.3731     2.8423 C.ar         1    LIG   0.0000
  18 C18          3.2248     1.5709     2.0394 C.ar         1    LIG   0.0000
  19 H           -0.1931    -0.6822     1.2656 H            1    LIG   0.0000
  20 H            1.1111    -0.6594     2.2481 H            1    LIG   0.0000
  21 H           -0.1703     0.3003     2.5698 H            1    LIG   0.0000
  22 H            1.5546     0.5949     0.2731 H            1    LIG   0.0000
  23 H            0.2731     1.5546     0.5949 H            1    LIG   0.0000
  24 H            0.3571     3.2002     2.3907 H            1    LIG   0.0000
  25 H            1.7319     4.5898     3.7777 H            1    LIG   0.0000
  26 H            4.7936     7.4383     5.0170 H            1    LIG   0.0000
  27 H            6.0415     1.9151     4.5822 H            1    LIG   0.0000
  28 H            4.9168     1.7976     5.7602 H            1    LIG   0.0000
  29 H            7.5967     4.2394     7.3696 H            1    LIG   0.0000
  30 H            4.9974     2.1580     2.9636 H            1    LIG   0.0000
  31 H            3.6155     0.7741     1.5785 H            1    LIG   0.0000
@<TRIPOS>BOND
   1        1        2 1
   2        2        3 1
   3        3        4 ar
   4        4        5 ar
   5        5        6 ar
   6        6        7 1
   7        7        8 ar
   8        8        9 ar
   9        9       10 ar
  10       10       11 ar
  11       11       12 ar
  12       12        7 ar
  13       12       13 1
  14       13       14 1
  15       14       15 2
  16       14       16 am
  17       16       11 1
  18        6       17 ar
  19       17       18 ar
  20       18        3 ar
  21        1       19 1
  22        1       20 1
  23        1       21 1
  24        2       22 1
  25        2       23 1
  26        4       24 1
  27        5       25 1
  28        9       26 1
  29       13       27 1
  30       13       28 1
  31       16       29 1
  32       17       30 1
  33       18       31 1

@<TRIPOS>MOLECULE

  31   33
SMALL
USER_CHARGES
@<TRIPOS>ATOM
   1 C1           0.3843    -0.1048     1.8430 C.3          1    LIG   0.0000
   2 C2           1.0000     1.0000     1.0000 C.3          1    LIG   0.0000
   3 C3           1.8772     1.8772     1.8772 C.ar         1    LIG   0.0000
   4 C4           1.3259     2.9847     2.5125 C.ar         1    LIG   0.0000
   5 C5           2.1224     3.7925     3.3175 C.ar         1    LIG   0.0000
   6 C6           3.4683     3.4785     3.4750 C.ar         1    LIG   0.0000
   7 C7           4.3036     4.3183     4.3144 C.ar         1    LIG   0.0000
   8 N8           4.7880     5.4729     3.8361 N.ar         1    LIG   0.0000
   9 C9           5.5607     6.2659     4.5932 C.ar         1    LIG   0.0000
  10 N10          5.8627     5.9128     5.8514 N.ar         1    LIG   0.0000
  11 C11          5.4144     4.7738     6.3943 C.ar         1    LIG   0.0000
  12 C12          4.6221     3.9543     5.6185 C.ar         1    LIG   0.0000
  13 C13          4.2539     2.7350     6.4392 C.3          1    LIG   0.0000
  14 C14          4.9270     3.0140     7.7690 C.2          1    LIG   0.0000
  15 O15          4.8806     2.3031     8.7561 O.2          1    LIG   0.0000
  16 N16          5.6069     4.2332     7.6688 N.am         1    LIG   0.0000
  17 C17          4.0284     2.3731     2.8423 C.ar         1    LIG   0.0000
  18 C18          3.2248     1.5709     2.0394 C.ar         1    LIG   0.0000
  19 H           -0.1931    -0.6822     1.2656 H            1    LIG   0.0000
  20 H            1.1111    -0.6594     2.2481 H            1    LIG   0.0000
  21 H           -0.1703     0.3003     2.5698 H            1    LIG   0.0000
  22 H            1.5546     0.5949     0.2731 H            1    LIG   0.0000
  23 H            0.2731     1.5546     0.5949 H            1    LIG   0.0000
  24 H            0.3571     3.2002     2.3907 H            1    LIG   0.0000
  25 H            1.7319     4.5898     3.7777 H            1    LIG   0.0000
  26 H            5.9128     7.1235     4.2182 H            1    LIG   0.0000
  27 H            4.6105     1.8987     6.0228 H            1    LIG   0.0000
  28 H            3.2626     2.6578     6.5458 H            1    LIG   0.0000
  29 H            6.1476     4.6533     8.3976 H            1    LIG   0.0000
  30 H            4.9974     2.1580     2.9636 H            1    LIG   0.0000
  31 H            3.6155     0.7741     1.5785 H            1    LIG   0.0000
@<TRIPOS>BOND
   1        1        2 1
   2        2        3 1
   3        3        4 ar
   4        4        5 ar
   5        5        6 ar
   6        6        7 1
   7        7        8 ar
   8        8        9 ar
   9        9       10 ar
  10       10       11 ar
  11       11       12 ar
  12       12        7 ar
  13       12       13 1
  14       13       14 1
  15       14       15 2
  16       14       16 am
  17       16       11 1
  18        6       17 ar
  19       17       18 ar
  20       18        3 ar
  21        1       19 1
  22        1       20 1
  23        1       21 1
  24        2       22 1
  25        2       23 1
  26        4       24 1
  27        5       25 1
  28        9       26 1
  29       13       27 1
  30       13       28 1
  31       16       29 1
  32       17       30 1
  33       18       31 1

@<TRIPOS>MOLECULE

  31   33
SMALL
USER_CHARGES
@<TRIPOS>ATOM
   1 C1           0.3843    -0.1048     1.8430 C.3          1    LIG   0.0000
   2 C2           1.0000     1.0000     1.0000 C.3          1    LIG   0.0000
   3 C3           1.8772     1.8772     1.8772 C.ar         1    LIG   0.0000
   4 C4           1.3259     2.9847     2.5125 C.ar         1    LIG   0.0000
   5 C5           2.1224     3.7925     3.3175 C.ar         1    LIG   0.0000
   6 C6           3.4683     3.4785     3.4750 C.ar         1    LIG   0.0000
   7 C7           4.3036     4.3183     4.3144 C.ar         1    LIG   0.0000
   8 N8           3.8220     4.8034     5.4673 N.ar         1    LIG   0.0000
   9 C9           4.5753     5.5802     6.2599 C.ar         1    LIG   0.0000
  10 N10          5.8330     5.8858     5.9079 N.ar         1    LIG   0.0000
  11 C11          6.3791     5.4372     4.7706 C.ar         1    LIG   0.0000
  12 C12          5.6071     4.6406     3.9516 C.ar         1    LIG   0.0000
  13 C13          6.4308     4.2727     2.7342 C.3          1    LIG   0.0000
  14 C14          7.7579     4.9509     3.0137 C.2          1    LIG   0.0000
  15 O15          8.7463     4.9065     2.3044 O.2          1    LIG   0.0000
  16 N16          7.6537     5.6329     4.2314 N.am         1    LIG   0.0000
  17 C17          4.0284     2.3731     2.8423 C.ar         1    LIG   0.0000
  18 C18          3.2248     1.5709     2.0394 C.ar         1    LIG   0.0000
  19 H           -0.1931    -0.6822     1.2656 H            1    LIG   0.0000
  20 H            1.1111    -0.6594     2.2481 H            1    LIG   0.0000
  21 H           -0.1703     0.3003     2.5698 H            1    LIG   0.0000
  22 H            1.5546     0.5949     0.2731 H            1    LIG   0.0000
  23 H            0.2731     1.5546     0.5949 H            1    LIG   0.0000
  24 H            0.3571     3.2002     2.3907 H            1    LIG   0.0000
  25 H            1.7319     4.5898     3.7777 H            1    LIG   0.0000
  26 H            4.1979     5.9328     7.1162 H            1    LIG   0.0000
  27 H            6.0144     4.6263     1.8966 H            1    LIG   0.0000
  28 H            6.5409     3.2816     2.6591 H            1    LIG   0.0000
  29 H            8.3800     6.1769     4.6515 H            1    LIG   0.0000
  30 H            4.9974     2.1580     2.9636 H            1    LIG   0.0000
  31 H            3.6155     0.7741     1.5785 H            1    LIG   0.0000
@<TRIPOS>BOND
   1        1        2 1
   2        2        3 1
   3        3        4 ar
   4        4        5 ar
   5        5        6 ar
   6        6        7 1
   7        7        8 ar
   8        8        9 ar
   9        9       10 ar
  10       10       11 ar
  11       11       12 ar
  12       12        7 ar
  13       12       13 1
  14       13       14 1
  15       14       15 2
  16       14       16 am
  17       16       11 1
  18        6       17 ar
  19       17       18 ar
  20       18        3 ar
  21        1       19 1
  22        1       20 1
  23        1       21 1
  24        2       22 1
  25        2       23 1
  26        4       24 1
  27        5       25 1
  28        9       26 1
  29       13       27 1
  30       13       28 1
  31       16       29 1
  32       17       30 1
  33       18       31 1

@<TRIPOS>MOLECULE

  31   33
SMALL
USER_CHARGES
@<TRIPOS>ATOM
   1 C1           0.3843    -0.1048     1.8430 C.3          1    LIG   0.0000
   2 C2           1.0000     1.0000     1.0000 C.3          1    LIG   0.0000
   3 C3           1.8772     1.8772     1.8772 C.ar         1    LIG   0.0000
   4 C4           1.3259     2.9847     2.5125 C.ar         1    LIG   0.0000
   5 C5           2.1224     3.7925     3.3175 C.ar         1    LIG   0.0000
   6 C6           3.4683     3.4785     3.4750 C.ar         1    LIG   0.0000
   7 C7           4.3036     4.3183     4.3144 C.ar         1    LIG   0.0000
   8 N8           4.2734     4.1752     5.6467 N.ar         1    LIG   0.0000
   9 C9           5.0369     4.9386     6.4424 C.ar         1    LIG   0.0000
  10 N10          5.8497     5.8647     5.9125 N.ar         1    LIG   0.0000
  11 C11          5.9307     6.0630     4.5906 C.ar         1    LIG   0.0000
  12 C12          5.1453     5.2821     3.7693 C.ar         1    LIG   0.0000
  13 C13          5.4007     5.6968     2.3344 C.3          1    LIG   0.0000
  14 C14          6.4466     6.7845     2.4841 C.2          1    LIG   0.0000
  15 O15          6.9743     7.3981     1.5748 O.2          1    LIG   0.0000
  16 N16          6.7059     6.9584     3.8484 N.am         1    LIG   0.0000
  17 C17          4.0284     2.3731     2.8423 C.ar         1    LIG   0.0000
  18 C18          3.2248     1.5709     2.0394 C.ar         1    LIG   0.0000
  19 H           -0.1931    -0.6822     1.2656 H            1    LIG   0.0000
  20 H            1.1111    -0.6594     2.2481 H            1    LIG   0.0000
  21 H           -0.1703     0.3003     2.5698 H            1    LIG   0.0000
  22 H            1.5546     0.5949     0.2731 H            1    LIG   0.0000
  23 H            0.2731     1.5546     0.5949 H            1    LIG   0.0000
  24 H            0.3571     3.2002     2.3907 H            1    LIG   0.0000
  25 H            1.7319     4.5898     3.7777 H            1    LIG   0.0000
  26 H            5.0001     4.8170     7.4343 H            1    LIG   0.0000
  27 H            4.5689     6.0524     1.9081 H            1    LIG   0.0000
  28 H            5.7510     4.9314     1.7946 H            1    LIG   0.0000
  29 H            7.3476     7.6217     4.2333 H            1    LIG   0.0000
  30 H            4.9974     2.1580     2.9636 H            1    LIG   0.0000
  31 H            3.6155     0.7741     1.5785 H            1    LIG   0.0000
@<TRIPOS>BOND
   1        1        2 1
   2        2        3 1
   3        3        4 ar
   4        4        5 ar
   5        5        6 ar
   6        6        7 1
   7        7        8 ar
   8        8        9 ar
   9        9       10 ar
  10       10       11 ar
  11       11       12 ar
  12       12        7 ar
  13       12       13 1
  14       13       14 1
  15       14       15 2
  16       14       16 am
  17       16       11 1
  18        6       17 ar
  19       17       18 ar
  20       18        3 ar
  21        1       19 1
  22        1       20 1
  23        1       21 1
  24        2       22 1
  25        2       23 1
  26        4       24 1
  27        5       25 1
  28        9       26 1
  29       13       27 1
  30       13       28 1
  31       16       29 1
  32       17       30 1
  33       18       31 1

@<TRIPOS>MOLECULE

  31   33
SMALL
USER_CHARGES
@<TRIPOS>ATOM
   1 C1           0.3843    -0.1048     1.8430 C.3          1    LIG   0.0000
   2 C2           1.0000     1.0000     1.0000 C.3          1    LIG   0.0000
   3 C3           1.8772     1.8772     1.8772 C.ar         1    LIG   0.0000
   4 C4           1.3259     2.9847     2.5125 C.ar         1    LIG   0.0000
   5 C5           2.1224     3.7925     3.3175 C.ar         1    LIG   0.0000
   6 C6           3.4683     3.4785     3.4750 C.ar         1    LIG   0.0000
   7 C7           4.3036     4.3183     4.3144 C.ar         1    LIG   0.0000
   8 N8           5.2204     3.7616     5.1181 N.ar         1    LIG   0.0000
   9 C9           6.0044     4.5170     5.9015 C.ar         1    LIG   0.0000
  10 N10          5.8821     5.8527     5.8922 N.ar         1    LIG   0.0000
  11 C11          4.9876     6.4766     5.1152 C.ar         1    LIG   0.0000
  12 C12          4.1778     5.7035     4.3105 C.ar         1    LIG   0.0000
  13 C13          3.2517     6.6256     3.5437 C.3          1    LIG   0.0000
  14 C14          3.6840     7.9997     4.0175 C.2          1    LIG   0.0000
  15 O15          3.2233     9.0622     3.6425 O.2          1    LIG   0.0000
  16 N16          4.7089     7.8370     4.9566 N.am         1    LIG   0.0000
  17 C17          4.0284     2.3731     2.8423 C.ar         1    LIG   0.0000
  18 C18          3.2248     1.5709     2.0394 C.ar         1    LIG   0.0000
  19 H           -0.1931    -0.6822     1.2656 H            1    LIG   0.0000
  20 H            1.1111    -0.6594     2.2481 H            1    LIG   0.0000
  21 H           -0.1703     0.3003     2.5698 H            1    LIG   0.0000
  22 H            1.5546     0.5949     0.2731 H            1    LIG   0.0000
  23 H            0.2731     1.5546     0.5949 H            1    LIG   0.0000
  24 H            0.3571     3.2002     2.3907 H            1    LIG   0.0000
  25 H            1.7319     4.5898     3.7777 H            1    LIG   0.0000
  26 H            6.6825     4.0829     6.4946 H            1    LIG   0.0000
  27 H            2.2948     6.4491     3.7743 H            1    LIG   0.0000
  28 H            3.3804     6.5272     2.5569 H            1    LIG   0.0000
  29 H            5.1711     8.5804     5.4401 H            1    LIG   0.0000
  30 H            4.9974     2.1580     2.9636 H            1    LIG   0.0000
  31 H            3.6155     0.7741     1.5785 H            1    LIG   0.0000
@<TRIPOS>BOND
   1        1        2 1
   2        2        3 1
   3        3        4 ar
   4        4        5 ar
   5        5        6 ar
   6        6        7 1
   7        7        8 ar
   8        8        9 ar
   9        9       10 ar
  10       10       11 ar
  11       11       12 ar
  12       12        7 ar
  13       12       13 1
  14       13       14 1
  15       14       15 2
  16       14       16 am
  17       16       11 1
  18        6       17 ar
  19       17       18 ar
  20       18        3 ar
  21        1       19 1
  22        1       20 1
  23        1       21 1
  24        2       22 1
  25        2       23 1
  26        4       24 1
  27        5       25 1
  28        9       26 1
  29       13       27 1
  30       13       28 1
  31       16       29 1
  32       17       30 1
  33       18       31 1

@<TRIPOS>MOLECULE

  31   33
SMALL
USER_CHARGES
@<TRIPOS>ATOM
   1 C1           0.3843    -0.1048     1.8430 C.3          1    LIG   0.0000
   2 C2           1.0000     1.0000     1.0000 C.3          1    LIG   0.0000
   3 C3           1.8772     1.8772     1.8772 C.ar         1    LIG   0.0000
   4 C4           1.3259     2.9847     2.5125 C.ar         1    LIG   0.0000
   5 C5           2.1224     3.7925     3.3175 C.ar         1    LIG   0.0000
   6 C6           3.4683     3.4785     3.4750 C.ar         1    LIG   0.0000
   7 C7           4.3036     4.3183     4.3144 C.ar         1    LIG   0.0000
   8 N8           5.5563     4.6086     3.9364 N.ar         1    LIG   0.0000
   9 C9           6.3463     5.3834     4.6945 C.ar         1    LIG   0.0000
  10 N10          5.8906     5.8841     5.8524 N.ar         1    LIG   0.0000
  11 C11          4.6506     5.6352     6.2925 C.ar         1    LIG   0.0000
  12 C12          3.8363     4.8368     5.5174 C.ar         1    LIG   0.0000
  13 C13          2.5031     4.6924     6.2229 C.3          1    LIG   0.0000
  14 C14          2.6922     5.5386     7.4669 C.2          1    LIG   0.0000
  15 O15          1.8567     5.7367     8.3299 O.2          1    LIG   0.0000
  16 N16          3.9916     6.0583     7.4501 N.am         1    LIG   0.0000
  17 C17          4.0284     2.3731     2.8423 C.ar         1    LIG   0.0000
  18 C18          3.2248     1.5709     2.0394 C.ar         1    LIG   0.0000
  19 H           -0.1931    -0.6822     1.2656 H            1    LIG   0.0000
  20 H            1.1111    -0.6594     2.2481 H            1    LIG   0.0000
  21 H           -0.1703     0.3003     2.5698 H            1    LIG   0.0000
  22 H            1.5546     0.5949     0.2731 H            1    LIG   0.0000
  23 H            0.2731     1.5546     0.5949 H            1    LIG   0.0000
  24 H            0.3571     3.2002     2.3907 H            1    LIG   0.0000
  25 H            1.7319     4.5898     3.7777 H            1    LIG   0.0000
  26 H            7.2782     5.5884     4.3954 H            1    LIG   0.0000
  27 H            2.3219     3.7380     6.4599 H            1    LIG   0.0000
  28 H            1.7562     5.0432     5.6581 H            1    LIG   0.0000
  29 H            4.3878     6.6429     8.1581 H            1    LIG   0.0000
  30 H            4.9974     2.1580     2.9636 H            1    LIG   0.0000
  31 H            3.6155     0.7741     1.5785 H            1    LIG   0.0000
@<TRIPOS>BOND
   1        1        2 1
   2        2        3 1
   3        3        4 ar
   4        4        5 ar
   5        5        6 ar
   6        6        7 1
   7        7        8 ar
   8        8        9 ar
   9        9       10 ar
  10       10       11 ar
  11       11       12 ar
  12       12        7 ar
  13       12       13 1
  14       13       14 1
  15       14       15 2
  16       14       16 am
  17       16       11 1
  18        6       17 ar
  19       17       18 ar
  20       18        3 ar
  21        1       19 1
  22        1       20 1
  23        1       21 1
  24        2       22 1
  25        2       23 1
  26        4       24 1
  27        5       25 1
  28        9       26 1
  29       13       27 1
  30       13       28 1
  31       16       29 1
  32       17       30 1
  33       18       31 1

@<TRIPOS>MOLECULE

  31   33
SMALL
USER_CHARGES
@<TRIPOS>ATOM
   1 C1           0.3843    -0.1048     1.8430 C.3          1    LIG   0.0000
   2 C2           1.0000     1.0000     1.0000 C.3          1    LIG   0.0000
   3 C3           1.8772     1.8772     1.8772 C.ar         1    LIG   0.0000
   4 C4           1.4559     2.2061     3.1611 C.ar         1    LIG   0.0000
   5 C5           2.2535     3.0085     3.9704 C.ar         1    LIG   0.0000
   6 C6           3.4688     3.4739     3.4791 C.ar         1    LIG   0.0000
   7 C7           4.3049     4.3113     4.3201 C.ar         1    LIG   0.0000
   8 N8           5.3494     3.7783     4.9692 N.ar         1    LIG   0.0000
   9 C9           6.1368     4.5323     5.7507 C.ar         1    LIG   0.0000
  10 N10          5.8890     5.8425     5.8954 N.ar         1    LIG   0.0000
  11 C11          4.8631     6.4418     5.2777 C.ar         1    LIG   0.0000
  12 C12          4.0496     5.6697     4.4757 C.ar         1    LIG   0.0000
  13 C13          2.9653     6.5598     3.9030 C.3          1    LIG   0.0000
  14 C14          3.3139     7.9193     4.4772 C.2          1    LIG   0.0000
  15 O15          2.7183     8.9592     4.2631 O.2          1    LIG   0.0000
  16 N16          4.4425     7.7746     5.2921 N.am         1    LIG   0.0000
  17 C17          3.8976     3.1506     2.1956 C.ar         1    LIG   0.0000
  18 C18          3.0939     2.3480     1.3933 C.ar         1    LIG   0.0000
  19 H           -0.1931    -0.6822     1.2656 H            1    LIG   0.0000
  20 H            1.1111    -0.6594     2.2481 H            1    LIG   0.0000
  21 H           -0.1703     0.3003     2.5698 H            1    LIG   0.0000
  22 H            1.5546     0.5949     0.2731 H            1    LIG   0.0000
  23 H            0.2731     1.5546     0.5949 H            1    LIG   0.0000
  24 H            0.5797     1.8659     3.5024 H            1    LIG   0.0000
  25 H            1.9566     3.2480     4.8948 H            1    LIG   0.0000
  26 H            6.9113     4.1160     6.2271 H            1    LIG   0.0000
  27 H            2.0589     6.2630     4.2032 H            1    LIG   0.0000
  28 H            2.9983     6.5711     2.9036 H            1    LIG   0.0000
  29 H            4.8809     8.5120     5.8059 H            1    LIG   0.0000
  30 H            4.7734     3.4915     1.8540 H            1    LIG   0.0000
  31 H            3.3904     2.1091     0.4686 H            1    LIG   0.0000
@<TRIPOS>BOND
   1        1        2 1
   2        2        3 1
   3        3        4 ar
   4        4        5 ar
   5        5        6 ar
   6        6        7 1
   7        7        8 ar
   8        8        9 ar
   9        9       10 ar
  10       10       11 ar
  11       11       12 ar
  12       12        7 ar
  13       12       13 1
  14       13       14 1
  15       14       15 2
  16       14       16 am
  17       16       11 1
  18        6       17 ar
  19       17       18 ar
  20       18        3 ar
  21        1       19 1
  22        1       20 1
  23        1       21 1
  24        2       22 1
  25        2       23 1
  26        4       24 1
  27        5       25 1
  28        9       26 1
  29       13       27 1
  30       13       28 1
  31       16       29 1
  32       17       30 1
  33       18       31 1

@<TRIPOS>MOLECULE

  31   33
SMALL
USER_CHARGES
@<TRIPOS>ATOM
   1 C1           0.3843    -0.1048     1.8430 C.3          1    LIG   0.0000
   2 C2           1.0000     1.0000     1.0000 C.3          1    LIG   0.0000
   3 C3           1.8772     1.8772     1.8772 C.ar         1    LIG   0.0000
   4 C4           1.4559     2.2061     3.1611 C.ar         1    LIG   0.0000
   5 C5           2.2535     3.0085     3.9704 C.ar         1    LIG   0.0000
   6 C6           3.4688     3.4739     3.4791 C.ar         1    LIG   0.0000
   7 C7           4.3049     4.3113     4.3201 C.ar         1    LIG   0.0000
   8 N8           4.6256     5.5509     3.9237 N.ar         1    LIG   0.0000
   9 C9           5.3954     6.3434     4.6842 C.ar         1    LIG   0.0000
  10 N10          5.8599     5.9039     5.8632 N.ar         1    LIG   0.0000
  11 C11          5.5803     4.6773     6.3218 C.ar         1    LIG   0.0000
  12 C12          4.7915     3.8584     5.5418 C.ar         1    LIG   0.0000
  13 C13          4.6280     2.5338     6.2592 C.3          1    LIG   0.0000
  14 C14          5.4079     2.7518     7.5412 C.2          1    LIG   0.0000
  15 O15          5.5326     1.9480     8.4469 O.2          1    LIG   0.0000
  16 N16          5.9556     4.0392     7.5074 N.am         1    LIG   0.0000
  17 C17          3.8976     3.1506     2.1956 C.ar         1    LIG   0.0000
  18 C18          3.0939     2.3480     1.3933 C.ar         1    LIG   0.0000
  19 H           -0.1931    -0.6822     1.2656 H            1    LIG   0.0000
  20 H            1.1111    -0.6594     2.2481 H            1    LIG   0.0000
  21 H           -0.1703     0.3003     2.5698 H            1    LIG   0.0000
  22 H            1.5546     0.5949     0.2731 H            1    LIG   0.0000
  23 H            0.2731     1.5546     0.5949 H            1    LIG   0.0000
  24 H            0.5797     1.8659     3.5024 H            1    LIG   0.0000
  25 H            1.9566     3.2480     4.8948 H            1    LIG   0.0000
  26 H            5.6239     7.2652     4.3710 H            1    LIG   0.0000
  27 H            5.0160     1.7834     5.7241 H            1    LIG   0.0000
  28 H            3.6651     2.3436     6.4506 H            1    LIG   0.0000
  29 H            6.5280     4.4412     8.2221 H            1    LIG   0.0000
  30 H            4.7734     3.4915     1.8540 H            1    LIG   0.0000
  31 H            3.3904     2.1091     0.4686 H            1    LIG   0.0000
@<TRIPOS>BOND
   1        1        2 1
   2        2        3 1
   3        3        4 ar
   4        4        5 ar
   5        5        6 ar
   6        6        7 1
   7        7        8 ar
   8        8        9 ar
   9        9       10 ar
  10       10       11 ar
  11       11       12 ar
  12       12        7 ar
  13       12       13 1
  14       13       14 1
  15       14       15 2
  16       14       16 am
  17       16       11 1
  18        6       17 ar
  19       17       18 ar
  20       18        3 ar
  21        1       19 1
  22        1       20 1
  23        1       21 1
  24        2       22 1
  25        2       23 1
  26        4       24 1
  27        5       25 1
  28        9       26 1
  29       13       27 1
  30       13       28 1
  31       16       29 1
  32       17       30 1
  33       18       31 1

@<TRIPOS>MOLECULE

  31   33
SMALL
USER_CHARGES
@<TRIPOS>ATOM
   1 C1           0.3843    -0.1048     1.8430 C.3          1    LIG   0.0000
   2 C2           1.0000     1.0000     1.0000 C.3          1    LIG   0.0000
   3 C3           1.8772     1.8772     1.8772 C.ar         1    LIG   0.0000
   4 C4           1.8735     3.2557     1.6938 C.ar         1    LIG   0.0000
   5 C5           2.6736     4.0656     2.4931 C.ar         1    LIG   0.0000
   6 C6           3.4719     3.4798     3.4702 C.ar         1    LIG   0.0000
   7 C7           4.3084     4.3208     4.3070 C.ar         1    LIG   0.0000
   8 N8           4.1382     4.3239     5.6365 N.ar         1    LIG   0.0000
   9 C9           4.8998     5.0915     6.4302 C.ar         1    LIG   0.0000
  10 N10          5.8517     5.8742     5.9010 N.ar         1    LIG   0.0000
  11 C11          6.0770     5.9221     4.5818 C.ar         1    LIG   0.0000
  12 C12          5.2944     5.1366     3.7622 C.ar         1    LIG   0.0000
  13 C13          5.7257     5.3701     2.3286 C.3          1    LIG   0.0000
  14 C14          6.8616     6.3630     2.4809 C.2          1    LIG   0.0000
  15 O15          7.5341     6.8232     1.5765 O.2          1    LIG   0.0000
  16 N16          7.0085     6.6555     3.8416 N.am         1    LIG   0.0000
  17 C17          3.4825     2.1015     3.6598 C.ar         1    LIG   0.0000
  18 C18          2.6796     1.2993     2.8562 C.ar         1    LIG   0.0000
  19 H           -0.1931    -0.6822     1.2656 H            1    LIG   0.0000
  20 H            1.1111    -0.6594     2.2481 H            1    LIG   0.0000
  21 H           -0.1703     0.3003     2.5698 H            1    LIG   0.0000
  22 H            1.5546     0.5949     0.2731 H            1    LIG   0.0000
  23 H            0.2731     1.5546     0.5949 H            1    LIG   0.0000
  24 H            1.2958     3.6647     0.9875 H            1    LIG   0.0000
  25 H            2.6749     5.0576     2.3668 H            1    LIG   0.0000
  26 H            4.7573     5.0801     7.4199 H            1    LIG   0.0000
  27 H            4.9798     5.7558     1.7856 H            1    LIG   0.0000
  28 H            6.0426     4.5217     1.9045 H            1    LIG   0.0000
  29 H            7.6775     7.2920     4.2255 H            1    LIG   0.0000
  30 H            4.0608     1.6925     4.3656 H            1    LIG   0.0000
  31 H            2.6789     0.3073     2.9820 H            1    LIG   0.0000
@<TRIPOS>BOND
   1        1        2 1
   2        2        3 1
   3        3        4 ar
   4        4        5 ar
   5        5        6 ar
   6        6        7 1
   7        7        8 ar
   8        8        9 ar
   9        9       10 ar
  10       10       11 ar
  11       11       12 ar
  12       12        7 ar
  13       12       13 1
  14       13       14 1
  15       14       15 2
  16       14       16 am
  17       16       11 1
  18        6       17 ar
  19       17       18 ar
  20       18        3 ar
  21        1       19 1
  22        1       20 1
  23        1       21 1
  24        2       22 1
  25        2       23 1
  26        4       24 1
  27        5       25 1
  28        9       26 1
  29       13       27 1
  30       13       28 1
  31       16       29 1
  32       17       30 1
  33       18       31 1

@<TRIPOS>MOLECULE

  31   33
SMALL
USER_CHARGES
@<TRIPOS>ATOM
   1 C1           0.3843    -0.1048     1.8430 C.3          1    LIG   0.0000
   2 C2           1.0000     1.0000     1.0000 C.3          1    LIG   0.0000
   3 C3           1.8772     1.8772     1.8772 C.ar         1    LIG   0.0000
   4 C4           1.8735     3.2557     1.6938 C.ar         1    LIG   0.0000
   5 C5           2.6736     4.0656     2.4931 C.ar         1    LIG   0.0000
   6 C6           3.4719     3.4798     3.4702 C.ar         1    LIG   0.0000
   7 C7           4.3084     4.3208     4.3070 C.ar         1    LIG   0.0000
   8 N8           5.6147     4.4487     4.0354 N.ar         1    LIG   0.0000
   9 C9           6.4071     5.2210     4.7935 C.ar         1    LIG   0.0000
  10 N10          5.8999     5.8832     5.8439 N.ar         1    LIG   0.0000
  11 C11          4.6048     5.8017     6.1744 C.ar         1    LIG   0.0000
  12 C12          3.7874     5.0066     5.3992 C.ar         1    LIG   0.0000
  13 C13          2.3860     5.0657     5.9726 C.3          1    LIG   0.0000
  14 C14          2.5454     6.0176     7.1421 C.2          1    LIG   0.0000
  15 O15          1.6581     6.3850     7.8901 O.2          1    LIG   0.0000
  16 N16          3.8881     6.4065     7.2108 N.am         1    LIG   0.0000
  17 C17          3.4825     2.1015     3.6598 C.ar         1    LIG   0.0000
  18 C18          2.6796     1.2993     2.8562 C.ar         1    LIG   0.0000
  19 H           -0.1931    -0.6822     1.2656 H            1    LIG   0.0000
  20 H            1.1111    -0.6594     2.2481 H            1    LIG   0.0000
  21 H           -0.1703     0.3003     2.5698 H            1    LIG   0.0000
  22 H            1.5546     0.5949     0.2731 H            1    LIG   0.0000
  23 H            0.2731     1.5546     0.5949 H            1    LIG   0.0000
  24 H            1.2958     3.6647     0.9875 H            1    LIG   0.0000
  25 H            2.6749     5.0576     2.3668 H            1    LIG   0.0000
  26 H            7.3794     5.3033     4.5748 H            1    LIG   0.0000
  27 H            2.0838     4.1635     6.2804 H            1    LIG   0.0000
  28 H            1.7366     5.4239     5.3018 H            1    LIG   0.0000
  29 H            4.2754     7.0227     7.8965 H            1    LIG   0.0000
  30 H            4.0608     1.6925     4.3656 H            1    LIG   0.0000
  31 H            2.6789     0.3073     2.9820 H            1    LIG   0.0000
@<TRIPOS>BOND
   1        1        2 1
   2        2        3 1
   3        3        4 ar
   4        4        5 ar
   5        5        6 ar
   6        6        7 1
   7        7        8 ar
   8        8        9 ar
   9        9       10 ar
  10       10       11 ar
  11       11       12 ar
  12       12        7 ar
  13       12       13 1
  14       13       14 1
  15       14       15 2
  16       14       16 am
  17       16       11 1
  18        6       17 ar
  19       17       18 ar
  20       18        3 ar
  21        1       19 1
  22        1       20 1
  23        1       21 1
  24        2       22 1
  25        2       23 1
  26        4       24 1
  27        5       25 1
  28        9       26 1
  29       13       27 1
  30       13       28 1
  31       16       29 1
  32       17       30 1
  33       18       31 1

