@<TRIPOS>MOLECULE
*****
 31 33 0 0 0
SMALL
USER_CHARGES

@<TRIPOS>ATOM
      1 C1          0.3843   -0.1048    1.8430 C.3     1  LIG1        0.0000
      2 C2          1.0000    1.0000    1.0000 C.3     1  LIG1        0.0000
      3 C3          1.8772    1.8772    1.8772 C.3     1  LIG1        0.0000
      4 C4          1.8735    3.2557    1.6938 C.3     1  LIG1        0.0000
      5 C5          2.6736    4.0656    2.4931 C.3     1  LIG1        0.0000
      6 C6          3.4719    3.4798    3.4702 C.3     1  LIG1        0.0000
      7 C7          4.3084    4.3208    4.3070 C.3     1  LIG1        0.0000
      8 N8          4.1382    4.3239    5.6365 N.pl3   1  LIG1        0.0000
      9 C9          4.8998    5.0915    6.4302 C.3     1  LIG1        0.0000
     10 N10         5.8517    5.8742    5.9010 N.pl3   1  LIG1        0.0000
     11 C11         6.0770    5.9221    4.5818 C.3     1  LIG1        0.0000
     12 C12         5.2944    5.1366    3.7622 C.3     1  LIG1        0.0000
     13 C13         5.7257    5.3701    2.3286 C.3     1  LIG1        0.0000
     14 C14         6.8616    6.3630    2.4809 C.2     1  LIG1        0.0000
     15 O15         7.5341    6.8232    1.5765 O.2     1  LIG1        0.0000
     16 N16         7.0085    6.6555    3.8416 N.am    1  LIG1        0.0000
     17 C17         3.4825    2.1015    3.6598 C.3     1  LIG1        0.0000
     18 C18         2.6796    1.2993    2.8562 C.3     1  LIG1        0.0000
     19 H          -0.1931   -0.6822    1.2656 H       1  LIG1        0.0000
     20 H           1.1111   -0.6594    2.2481 H       1  LIG1        0.0000
     21 H          -0.1703    0.3003    2.5698 H       1  LIG1        0.0000
     22 H           1.5546    0.5949    0.2731 H       1  LIG1        0.0000
     23 H           0.2731    1.5546    0.5949 H       1  LIG1        0.0000
     24 H           1.2958    3.6647    0.9875 H       1  LIG1        0.0000
     25 H           2.6749    5.0576    2.3668 H       1  LIG1        0.0000
     26 H           4.7573    5.0801    7.4199 H       1  LIG1        0.0000
     27 H           4.9798    5.7558    1.7856 H       1  LIG1        0.0000
     28 H           6.0426    4.5217    1.9045 H       1  LIG1        0.0000
     29 H           7.6775    7.2920    4.2255 H       1  LIG1        0.0000
     30 H           4.0608    1.6925    4.3656 H       1  LIG1        0.0000
     31 H           2.6789    0.3073    2.9820 H       1  LIG1        0.0000
@<TRIPOS>BOND
     1     1     2    1
     2     2     3    1
     3     3     4   ar
     4     4     5   ar
     5     5     6   ar
     6     6     7    1
     7     7     8   ar
     8     8     9   ar
     9     9    10   ar
    10    10    11   ar
    11    11    12   ar
    12    12     7   ar
    13    12    13    1
    14    13    14    1
    15    14    15    2
    16    14    16   am
    17    16    11    1
    18     6    17   ar
    19    17    18   ar
    20    18     3   ar
    21     1    19    1
    22     1    20    1
    23     1    21    1
    24     2    22    1
    25     2    23    1
    26     4    24    1
    27     5    25    1
    28     9    26    1
    29    13    27    1
    30    13    28    1
    31    16    29    1
    32    17    30    1
    33    18    31    1
