@<TRIPOS>MOLECULE
*****
 31 33 0 0 0
SMALL
USER_CHARGES

@<TRIPOS>ATOM
      1 C1          0.3843   -0.1048    1.8430 C.3     1  LIG1        0.0000
      2 C2          1.0000    1.0000    1.0000 C.3     1  LIG1        0.0000
      3 C3          1.8772    1.8772    1.8772 C.3     1  LIG1        0.0000
      4 C4          1.4559    2.2061    3.1611 C.3     1  LIG1        0.0000
      5 C5          2.2535    3.0085    3.9704 C.3     1  LIG1        0.0000
      6 C6          3.4688    3.4739    3.4791 C.3     1  LIG1        0.0000
      7 C7          4.3049    4.3113    4.3201 C.3     1  LIG1        0.0000
      8 N8          4.6256    5.5509    3.9237 N.pl3   1  LIG1        0.0000
      9 C9          5.3954    6.3434    4.6842 C.3     1  LIG1        0.0000
     10 N10         5.8599    5.9039    5.8632 N.pl3   1  LIG1        0.0000
     11 C11         5.5803    4.6773    6.3218 C.3     1  LIG1        0.0000
     12 C12         4.7915    3.8584    5.5418 C.3     1  LIG1        0.0000
     13 C13         4.6280    2.5338    6.2592 C.3     1  LIG1        0.0000
     14 C14         5.4079    2.7518    7.5412 C.2     1  LIG1        0.0000
     15 O15         5.5326    1.9480    8.4469 O.2     1  LIG1        0.0000
     16 N16         5.9556    4.0392    7.5074 N.am    1  LIG1        0.0000
     17 C17         3.8976    3.1506    2.1956 C.3     1  LIG1        0.0000
     18 C18         3.0939    2.3480    1.3933 C.3     1  LIG1        0.0000
     19 H          -0.1931   -0.6822    1.2656 H       1  LIG1        0.0000
     20 H           1.1111   -0.6594    2.2481 H       1  LIG1        0.0000
     21 H          -0.1703    0.3003    2.5698 H       1  LIG1        0.0000
     22 H           1.5546    0.5949    0.2731 H       1  LIG1        0.0000
     23 H           0.2731    1.5546    0.5949 H       1  LIG1        0.0000
     24 H           0.5797    1.8659    3.5024 H       1  LIG1        0.0000
     25 H           1.9566    3.2480    4.8948 H       1  LIG1        0.0000
     26 H           5.6239    7.2652    4.3710 H       1  LIG1        0.0000
     27 H           5.0160    1.7834    5.7241 H       1  LIG1        0.0000
     28 H           3.6651    2.3436    6.4506 H       1  LIG1        0.0000
     29 H           6.5280    4.4412    8.2221 H       1  LIG1        0.0000
     30 H           4.7734    3.4915    1.8540 H       1  LIG1        0.0000
     31 H           3.3904    2.1091    0.4686 H       1  LIG1        0.0000
@<TRIPOS>BOND
     1     1     2    1
     2     2     3    1
     3     3     4   ar
     4     4     5   ar
     5     5     6   ar
     6     6     7    1
     7     7     8   ar
     8     8     9   ar
     9     9    10   ar
    10    10    11   ar
    11    11    12   ar
    12    12     7   ar
    13    12    13    1
    14    13    14    1
    15    14    15    2
    16    14    16   am
    17    16    11    1
    18     6    17   ar
    19    17    18   ar
    20    18     3   ar
    21     1    19    1
    22     1    20    1
    23     1    21    1
    24     2    22    1
    25     2    23    1
    26     4    24    1
    27     5    25    1
    28     9    26    1
    29    13    27    1
    30    13    28    1
    31    16    29    1
    32    17    30    1
    33    18    31    1
