@<TRIPOS>MOLECULE
*****
 31 33 0 0 0
SMALL
USER_CHARGES

@<TRIPOS>ATOM
      1 C1          0.3843   -0.1048    1.8430 C.3     1  LIG1        0.0000
      2 C2          1.0000    1.0000    1.0000 C.3     1  LIG1        0.0000
      3 C3          1.8772    1.8772    1.8772 C.3     1  LIG1        0.0000
      4 C4          1.3259    2.9847    2.5125 C.3     1  LIG1        0.0000
      5 C5          2.1224    3.7925    3.3175 C.3     1  LIG1        0.0000
      6 C6          3.4683    3.4785    3.4750 C.3     1  LIG1        0.0000
      7 C7          4.3036    4.3183    4.3144 C.3     1  LIG1        0.0000
      8 N8          4.2734    4.1752    5.6467 N.pl3   1  LIG1        0.0000
      9 C9          5.0369    4.9386    6.4424 C.3     1  LIG1        0.0000
     10 N10         5.8497    5.8647    5.9125 N.pl3   1  LIG1        0.0000
     11 C11         5.9307    6.0630    4.5906 C.3     1  LIG1        0.0000
     12 C12         5.1453    5.2821    3.7693 C.3     1  LIG1        0.0000
     13 C13         5.4007    5.6968    2.3344 C.3     1  LIG1        0.0000
     14 C14         6.4466    6.7845    2.4841 C.2     1  LIG1        0.0000
     15 O15         6.9743    7.3981    1.5748 O.2     1  LIG1        0.0000
     16 N16         6.7059    6.9584    3.8484 N.am    1  LIG1        0.0000
     17 C17         4.0284    2.3731    2.8423 C.3     1  LIG1        0.0000
     18 C18         3.2248    1.5709    2.0394 C.3     1  LIG1        0.0000
     19 H          -0.1931   -0.6822    1.2656 H       1  LIG1        0.0000
     20 H           1.1111   -0.6594    2.2481 H       1  LIG1        0.0000
     21 H          -0.1703    0.3003    2.5698 H       1  LIG1        0.0000
     22 H           1.5546    0.5949    0.2731 H       1  LIG1        0.0000
     23 H           0.2731    1.5546    0.5949 H       1  LIG1        0.0000
     24 H           0.3571    3.2002    2.3907 H       1  LIG1        0.0000
     25 H           1.7319    4.5898    3.7777 H       1  LIG1        0.0000
     26 H           5.0001    4.8170    7.4343 H       1  LIG1        0.0000
     27 H           4.5689    6.0524    1.9081 H       1  LIG1        0.0000
     28 H           5.7510    4.9314    1.7946 H       1  LIG1        0.0000
     29 H           7.3476    7.6217    4.2333 H       1  LIG1        0.0000
     30 H           4.9974    2.1580    2.9636 H       1  LIG1        0.0000
     31 H           3.6155    0.7741    1.5785 H       1  LIG1        0.0000
@<TRIPOS>BOND
     1     1     2    1
     2     2     3    1
     3     3     4   ar
     4     4     5   ar
     5     5     6   ar
     6     6     7    1
     7     7     8   ar
     8     8     9   ar
     9     9    10   ar
    10    10    11   ar
    11    11    12   ar
    12    12     7   ar
    13    12    13    1
    14    13    14    1
    15    14    15    2
    16    14    16   am
    17    16    11    1
    18     6    17   ar
    19    17    18   ar
    20    18     3   ar
    21     1    19    1
    22     1    20    1
    23     1    21    1
    24     2    22    1
    25     2    23    1
    26     4    24    1
    27     5    25    1
    28     9    26    1
    29    13    27    1
    30    13    28    1
    31    16    29    1
    32    17    30    1
    33    18    31    1
