@<TRIPOS>MOLECULE

  26   27
SMALL
USER_CHARGES
@<TRIPOS>ATOM
   1 O1           3.5777    -0.6398    -0.0387 O.3          1    LIG   0.0000
   2 C2           2.4003     0.0217    -0.0228 C.ar         1    LIG   0.0000
   3 C3           1.2045    -0.6880    -0.0173 C.ar         1    LIG   0.0000
   4 C4          -0.0129    -0.0152    -0.0015 C.ar         1    LIG   0.0000
   5 C5          -0.0182     1.3755     0.0089 C.ar         1    LIG   0.0000
   6 Cl6         -1.5701     2.2470     0.0290 Cl           1    LIG   0.0000
   7 C7           1.1719     2.0956     0.0027 C.ar         1    LIG   0.0000
   8 C8           2.3845     1.4142    -0.0133 C.ar         1    LIG   0.0000
   9 C9           3.6145     2.1821    -0.0195 C.ar         1    LIG   0.0000
  10 C10          3.7928     3.1987     0.9132 C.ar         1    LIG   0.0000
  11 C11          4.9764     3.9289     0.8976 C.ar         1    LIG   0.0000
  12 C12          5.9722     3.6520    -0.0330 C.ar         1    LIG   0.0000
  13 C13          5.7728     2.6309    -0.9564 C.ar         1    LIG   0.0000
  14 C14          6.8549     2.3210    -1.9779 C.3          1    LIG   0.0000
  15 F15          7.9806     1.9986    -1.3472 F            1    LIG   0.0000
  16 F16          6.4665     1.3027    -2.7401 F            1    LIG   0.0000
  17 F17          7.0645     3.3906    -2.7401 F            1    LIG   0.0000
  18 C18          4.5968     1.8884    -0.9592 C.ar         1    LIG   0.0000
  19 H            3.5893    -1.6397    -0.0455 H            1    LIG   0.0000
  20 H            1.2198    -1.6879    -0.0247 H            1    LIG   0.0000
  21 H           -0.8733    -0.5249     0.0022 H            1    LIG   0.0000
  22 H            1.1559     3.0954     0.0097 H            1    LIG   0.0000
  23 H            3.0803     3.4016     1.5850 H            1    LIG   0.0000
  24 H            5.1131     4.6620     1.5637 H            1    LIG   0.0000
  25 H            6.8212     4.1805    -0.0382 H            1    LIG   0.0000
  26 H            4.4598     1.1556    -1.6258 H            1    LIG   0.0000
@<TRIPOS>BOND
   1        1        2 1
   2        2        3 ar
   3        3        4 ar
   4        4        5 ar
   5        5        6 1
   6        5        7 ar
   7        7        8 ar
   8        8        2 ar
   9        8        9 1
  10        9       10 ar
  11       10       11 ar
  12       11       12 ar
  13       12       13 ar
  14       13       14 1
  15       14       15 1
  16       14       16 1
  17       14       17 1
  18       13       18 ar
  19       18        9 ar
  20        1       19 1
  21        3       20 1
  22        4       21 1
  23        7       22 1
  24       10       23 1
  25       11       24 1
  26       12       25 1
  27       18       26 1

@<TRIPOS>MOLECULE

  26   27
SMALL
USER_CHARGES
@<TRIPOS>ATOM
   1 O1           3.5777    -0.6398    -0.0387 O.3          1    LIG   0.0000
   2 C2           2.4003     0.0217    -0.0228 C.ar         1    LIG   0.0000
   3 C3           1.2045    -0.6880    -0.0173 C.ar         1    LIG   0.0000
   4 C4          -0.0129    -0.0152    -0.0015 C.ar         1    LIG   0.0000
   5 C5          -0.0182     1.3755     0.0089 C.ar         1    LIG   0.0000
   6 Cl6         -1.5701     2.2470     0.0290 Cl           1    LIG   0.0000
   7 C7           1.1719     2.0956     0.0027 C.ar         1    LIG   0.0000
   8 C8           2.3845     1.4142    -0.0133 C.ar         1    LIG   0.0000
   9 C9           3.6145     2.1821    -0.0195 C.ar         1    LIG   0.0000
  10 C10          3.9875     2.8885     1.1194 C.ar         1    LIG   0.0000
  11 C11          5.1691     3.6218     1.1018 C.ar         1    LIG   0.0000
  12 C12          5.9719     3.6525    -0.0335 C.ar         1    LIG   0.0000
  13 C13          5.5796     2.9387    -1.1611 C.ar         1    LIG   0.0000
  14 C14          6.4498     2.9665    -2.4071 C.3          1    LIG   0.0000
  15 F15          7.7119     2.7139    -2.0721 F            1    LIG   0.0000
  16 F16          6.0255     2.0428    -3.2649 F            1    LIG   0.0000
  17 F17          6.3734     4.1669    -2.9745 F            1    LIG   0.0000
  18 C18          4.4018     2.1990    -1.1659 C.ar         1    LIG   0.0000
  19 H            3.5893    -1.6397    -0.0455 H            1    LIG   0.0000
  20 H            1.2198    -1.6879    -0.0247 H            1    LIG   0.0000
  21 H           -0.8733    -0.5249     0.0022 H            1    LIG   0.0000
  22 H            1.1559     3.0954     0.0097 H            1    LIG   0.0000
  23 H            3.4145     2.8692     1.9387 H            1    LIG   0.0000
  24 H            5.4450     4.1333     1.9156 H            1    LIG   0.0000
  25 H            6.8206     4.1813    -0.0391 H            1    LIG   0.0000
  26 H            4.1256     1.6880    -1.9799 H            1    LIG   0.0000
@<TRIPOS>BOND
   1        1        2 1
   2        2        3 ar
   3        3        4 ar
   4        4        5 ar
   5        5        6 1
   6        5        7 ar
   7        7        8 ar
   8        8        2 ar
   9        8        9 1
  10        9       10 ar
  11       10       11 ar
  12       11       12 ar
  13       12       13 ar
  14       13       14 1
  15       14       15 1
  16       14       16 1
  17       14       17 1
  18       13       18 ar
  19       18        9 ar
  20        1       19 1
  21        3       20 1
  22        4       21 1
  23        7       22 1
  24       10       23 1
  25       11       24 1
  26       12       25 1
  27       18       26 1

@<TRIPOS>MOLECULE

  26   27
SMALL
USER_CHARGES
@<TRIPOS>ATOM
   1 O1           3.5777    -0.6398    -0.0387 O.3          1    LIG   0.0000
   2 C2           2.4003     0.0217    -0.0228 C.ar         1    LIG   0.0000
   3 C3           1.2045    -0.6880    -0.0173 C.ar         1    LIG   0.0000
   4 C4          -0.0129    -0.0152    -0.0015 C.ar         1    LIG   0.0000
   5 C5          -0.0182     1.3755     0.0089 C.ar         1    LIG   0.0000
   6 Cl6         -1.5701     2.2470     0.0290 Cl           1    LIG   0.0000
   7 C7           1.1719     2.0956     0.0027 C.ar         1    LIG   0.0000
   8 C8           2.3845     1.4142    -0.0133 C.ar         1    LIG   0.0000
   9 C9           3.6145     2.1821    -0.0195 C.ar         1    LIG   0.0000
  10 C10          3.6466     3.4302     0.5941 C.ar         1    LIG   0.0000
  11 C11          4.8318     4.1579     0.5816 C.ar         1    LIG   0.0000
  12 C12          5.9725     3.6516    -0.0323 C.ar         1    LIG   0.0000
  13 C13          5.9177     2.4014    -0.6397 C.ar         1    LIG   0.0000
  14 C14          7.1588     1.8397    -1.3139 C.3          1    LIG   0.0000
  15 F15          8.0687     1.5422    -0.3905 F            1    LIG   0.0000
  16 F16          6.8371     0.7402    -1.9896 F            1    LIG   0.0000
  17 F17          7.6566     2.7450    -2.1514 F            1    LIG   0.0000
  18 C18          4.7431     1.6567    -0.6396 C.ar         1    LIG   0.0000
  19 H            3.5893    -1.6397    -0.0455 H            1    LIG   0.0000
  20 H            1.2198    -1.6879    -0.0247 H            1    LIG   0.0000
  21 H           -0.8733    -0.5249     0.0022 H            1    LIG   0.0000
  22 H            1.1559     3.0954     0.0097 H            1    LIG   0.0000
  23 H            2.8296     3.7987     1.0376 H            1    LIG   0.0000
  24 H            4.8642     5.0563     1.0195 H            1    LIG   0.0000
  25 H            6.8215     4.1799    -0.0370 H            1    LIG   0.0000
  26 H            4.7105     0.7585    -1.0780 H            1    LIG   0.0000
@<TRIPOS>BOND
   1        1        2 1
   2        2        3 ar
   3        3        4 ar
   4        4        5 ar
   5        5        6 1
   6        5        7 ar
   7        7        8 ar
   8        8        2 ar
   9        8        9 1
  10        9       10 ar
  11       10       11 ar
  12       11       12 ar
  13       12       13 ar
  14       13       14 1
  15       14       15 1
  16       14       16 1
  17       14       17 1
  18       13       18 ar
  19       18        9 ar
  20        1       19 1
  21        3       20 1
  22        4       21 1
  23        7       22 1
  24       10       23 1
  25       11       24 1
  26       12       25 1
  27       18       26 1

@<TRIPOS>MOLECULE

  26   27
SMALL
USER_CHARGES
@<TRIPOS>ATOM
   1 O1           3.5777    -0.6398    -0.0387 O.3          1    LIG   0.0000
   2 C2           2.4003     0.0217    -0.0228 C.ar         1    LIG   0.0000
   3 C3           1.2045    -0.6880    -0.0173 C.ar         1    LIG   0.0000
   4 C4          -0.0129    -0.0152    -0.0015 C.ar         1    LIG   0.0000
   5 C5          -0.0182     1.3755     0.0089 C.ar         1    LIG   0.0000
   6 Cl6         -1.5701     2.2470     0.0290 Cl           1    LIG   0.0000
   7 C7           1.1719     2.0956     0.0027 C.ar         1    LIG   0.0000
   8 C8           2.3845     1.4142    -0.0133 C.ar         1    LIG   0.0000
   9 C9           3.6145     2.1821    -0.0195 C.ar         1    LIG   0.0000
  10 C10          3.7753     3.2116    -0.9413 C.ar         1    LIG   0.0000
  11 C11          4.9594     3.9412    -0.9382 C.ar         1    LIG   0.0000
  12 C12          5.9720     3.6525    -0.0295 C.ar         1    LIG   0.0000
  13 C13          5.7897     2.6188     0.8834 C.ar         1    LIG   0.0000
  14 C14          6.8906     2.2951     1.8802 C.3          1    LIG   0.0000
  15 F15          6.4228     2.4328     3.1176 F            1    LIG   0.0000
  16 F16          7.2998     1.0429     1.6977 F            1    LIG   0.0000
  17 F17          7.9126     3.1265     1.6975 F            1    LIG   0.0000
  18 C18          4.6139     1.8760     0.8979 C.ar         1    LIG   0.0000
  19 H            3.5893    -1.6397    -0.0455 H            1    LIG   0.0000
  20 H            1.2198    -1.6879    -0.0247 H            1    LIG   0.0000
  21 H           -0.8733    -0.5249     0.0022 H            1    LIG   0.0000
  22 H            1.1559     3.0954     0.0097 H            1    LIG   0.0000
  23 H            3.0503     3.4239    -1.5964 H            1    LIG   0.0000
  24 H            5.0843     4.6825    -1.5975 H            1    LIG   0.0000
  25 H            6.8206     4.1815    -0.0323 H            1    LIG   0.0000
  26 H            4.4893     1.1342     1.5568 H            1    LIG   0.0000
@<TRIPOS>BOND
   1        1        2 1
   2        2        3 ar
   3        3        4 ar
   4        4        5 ar
   5        5        6 1
   6        5        7 ar
   7        7        8 ar
   8        8        2 ar
   9        8        9 1
  10        9       10 ar
  11       10       11 ar
  12       11       12 ar
  13       12       13 ar
  14       13       14 1
  15       14       15 1
  16       14       16 1
  17       14       17 1
  18       13       18 ar
  19       18        9 ar
  20        1       19 1
  21        3       20 1
  22        4       21 1
  23        7       22 1
  24       10       23 1
  25       11       24 1
  26       12       25 1
  27       18       26 1

@<TRIPOS>MOLECULE

  26   27
SMALL
USER_CHARGES
@<TRIPOS>ATOM
   1 O1           3.5777    -0.6398    -0.0387 O.3          1    LIG   0.0000
   2 C2           2.4003     0.0217    -0.0228 C.ar         1    LIG   0.0000
   3 C3           1.2045    -0.6880    -0.0173 C.ar         1    LIG   0.0000
   4 C4          -0.0129    -0.0152    -0.0015 C.ar         1    LIG   0.0000
   5 C5          -0.0182     1.3755     0.0089 C.ar         1    LIG   0.0000
   6 Cl6         -1.5701     2.2470     0.0290 Cl           1    LIG   0.0000
   7 C7           1.1719     2.0956     0.0027 C.ar         1    LIG   0.0000
   8 C8           2.3845     1.4142    -0.0133 C.ar         1    LIG   0.0000
   9 C9           3.6145     2.1821    -0.0195 C.ar         1    LIG   0.0000
  10 C10          3.6353     3.4386    -0.6163 C.ar         1    LIG   0.0000
  11 C11          4.8207     4.1659    -0.6166 C.ar         1    LIG   0.0000
  12 C12          5.9723     3.6520    -0.0300 C.ar         1    LIG   0.0000
  13 C13          5.9287     2.3935     0.5611 C.ar         1    LIG   0.0000
  14 C14          7.1821     1.8228     1.2043 C.3          1    LIG   0.0000
  15 F15          7.0788     1.9066     2.5276 F            1    LIG   0.0000
  16 F16          7.3211     0.5483     0.8502 F            1    LIG   0.0000
  17 F17          8.2431     2.5140     0.7977 F            1    LIG   0.0000
  18 C18          4.7542     1.6486     0.5725 C.ar         1    LIG   0.0000
  19 H            3.5893    -1.6397    -0.0455 H            1    LIG   0.0000
  20 H            1.2198    -1.6879    -0.0247 H            1    LIG   0.0000
  21 H           -0.8733    -0.5249     0.0022 H            1    LIG   0.0000
  22 H            1.1559     3.0954     0.0097 H            1    LIG   0.0000
  23 H            2.8100     3.8133    -1.0389 H            1    LIG   0.0000
  24 H            4.8454     5.0697    -1.0438 H            1    LIG   0.0000
  25 H            6.8211     4.1806    -0.0332 H            1    LIG   0.0000
  26 H            4.7298     0.7446     0.9993 H            1    LIG   0.0000
@<TRIPOS>BOND
   1        1        2 1
   2        2        3 ar
   3        3        4 ar
   4        4        5 ar
   5        5        6 1
   6        5        7 ar
   7        7        8 ar
   8        8        2 ar
   9        8        9 1
  10        9       10 ar
  11       10       11 ar
  12       11       12 ar
  13       12       13 ar
  14       13       14 1
  15       14       15 1
  16       14       16 1
  17       14       17 1
  18       13       18 ar
  19       18        9 ar
  20        1       19 1
  21        3       20 1
  22        4       21 1
  23        7       22 1
  24       10       23 1
  25       11       24 1
  26       12       25 1
  27       18       26 1

@<TRIPOS>MOLECULE

  26   27
SMALL
USER_CHARGES
@<TRIPOS>ATOM
   1 O1           3.5777    -0.6398    -0.0387 O.3          1    LIG   0.0000
   2 C2           2.4003     0.0217    -0.0228 C.ar         1    LIG   0.0000
   3 C3           1.2045    -0.6880    -0.0173 C.ar         1    LIG   0.0000
   4 C4          -0.0129    -0.0152    -0.0015 C.ar         1    LIG   0.0000
   5 C5          -0.0182     1.3755     0.0089 C.ar         1    LIG   0.0000
   6 Cl6         -1.5701     2.2470     0.0290 Cl           1    LIG   0.0000
   7 C7           1.1719     2.0956     0.0027 C.ar         1    LIG   0.0000
   8 C8           2.3845     1.4142    -0.0133 C.ar         1    LIG   0.0000
   9 C9           3.6145     2.1821    -0.0195 C.ar         1    LIG   0.0000
  10 C10          3.9661     2.9042    -1.1554 C.ar         1    LIG   0.0000
  11 C11          5.1483     3.6369    -1.1501 C.ar         1    LIG   0.0000
  12 C12          5.9716     3.6531    -0.0292 C.ar         1    LIG   0.0000
  13 C13          5.6003     2.9238     1.0957 C.ar         1    LIG   0.0000
  14 C14          6.4936     2.9347     2.3255 C.3          1    LIG   0.0000
  15 F15          5.7400     2.9820     3.4204 F            1    LIG   0.0000
  16 F16          7.2348     1.8305     2.3448 F            1    LIG   0.0000
  17 F17          7.2876     4.0010     2.2873 F            1    LIG   0.0000
  18 C18          4.4228     2.1838     1.1122 C.ar         1    LIG   0.0000
  19 H            3.5893    -1.6397    -0.0455 H            1    LIG   0.0000
  20 H            1.2198    -1.6879    -0.0247 H            1    LIG   0.0000
  21 H           -0.8733    -0.5249     0.0022 H            1    LIG   0.0000
  22 H            1.1559     3.0954     0.0097 H            1    LIG   0.0000
  23 H            3.3776     2.8967    -1.9638 H            1    LIG   0.0000
  24 H            5.4097     4.1584    -1.9622 H            1    LIG   0.0000
  25 H            6.8199     4.1826    -0.0319 H            1    LIG   0.0000
  26 H            4.1618     1.6618     1.9242 H            1    LIG   0.0000
@<TRIPOS>BOND
   1        1        2 1
   2        2        3 ar
   3        3        4 ar
   4        4        5 ar
   5        5        6 1
   6        5        7 ar
   7        7        8 ar
   8        8        2 ar
   9        8        9 1
  10        9       10 ar
  11       10       11 ar
  12       11       12 ar
  13       12       13 ar
  14       13       14 1
  15       14       15 1
  16       14       16 1
  17       14       17 1
  18       13       18 ar
  19       18        9 ar
  20        1       19 1
  21        3       20 1
  22        4       21 1
  23        7       22 1
  24       10       23 1
  25       11       24 1
  26       12       25 1
  27       18       26 1

@<TRIPOS>MOLECULE

  26   27
SMALL
USER_CHARGES
@<TRIPOS>ATOM
   1 O1           3.5777    -0.6398    -0.0387 O.3          1    LIG   0.0000
   2 C2           2.4003     0.0217    -0.0228 C.ar         1    LIG   0.0000
   3 C3           1.2045    -0.6880    -0.0173 C.ar         1    LIG   0.0000
   4 C4          -0.0129    -0.0152    -0.0015 C.ar         1    LIG   0.0000
   5 C5          -0.0182     1.3755     0.0089 C.ar         1    LIG   0.0000
   6 Cl6         -1.5701     2.2470     0.0290 Cl           1    LIG   0.0000
   7 C7           1.1719     2.0956     0.0027 C.ar         1    LIG   0.0000
   8 C8           2.3845     1.4142    -0.0133 C.ar         1    LIG   0.0000
   9 C9           3.6145     2.1821    -0.0195 C.ar         1    LIG   0.0000
  10 C10          4.5994     1.8916    -0.9582 C.ar         1    LIG   0.0000
  11 C11          5.7751     2.6345    -0.9545 C.ar         1    LIG   0.0000
  12 C12          5.9704     3.6550    -0.0299 C.ar         1    LIG   0.0000
  13 C13          4.9722     3.9284     0.8995 C.ar         1    LIG   0.0000
  14 C14          5.1763     5.0413     1.9145 C.3          1    LIG   0.0000
  15 F15          5.0954     4.5404     3.1439 F            1    LIG   0.0000
  16 F16          6.3753     5.5888     1.7369 F            1    LIG   0.0000
  17 F17          4.2369     5.9684     1.7507 F            1    LIG   0.0000
  18 C18          3.7887     3.1978     0.9143 C.ar         1    LIG   0.0000
  19 H            3.5893    -1.6397    -0.0455 H            1    LIG   0.0000
  20 H            1.2198    -1.6879    -0.0247 H            1    LIG   0.0000
  21 H           -0.8733    -0.5249     0.0022 H            1    LIG   0.0000
  22 H            1.1559     3.0954     0.0097 H            1    LIG   0.0000
  23 H            4.4639     1.1594    -1.6257 H            1    LIG   0.0000
  24 H            6.4890     2.4324    -1.6249 H            1    LIG   0.0000
  25 H            6.8179     4.1857    -0.0333 H            1    LIG   0.0000
  26 H            3.0751     3.3996     1.5851 H            1    LIG   0.0000
@<TRIPOS>BOND
   1        1        2 1
   2        2        3 ar
   3        3        4 ar
   4        4        5 ar
   5        5        6 1
   6        5        7 ar
   7        7        8 ar
   8        8        2 ar
   9        8        9 1
  10        9       10 ar
  11       10       11 ar
  12       11       12 ar
  13       12       13 ar
  14       13       14 1
  15       14       15 1
  16       14       16 1
  17       14       17 1
  18       13       18 ar
  19       18        9 ar
  20        1       19 1
  21        3       20 1
  22        4       21 1
  23        7       22 1
  24       10       23 1
  25       11       24 1
  26       12       25 1
  27       18       26 1

@<TRIPOS>MOLECULE

  26   27
SMALL
USER_CHARGES
@<TRIPOS>ATOM
   1 O1           3.5777    -0.6398    -0.0387 O.3          1    LIG   0.0000
   2 C2           2.4003     0.0217    -0.0228 C.ar         1    LIG   0.0000
   3 C3           1.2045    -0.6880    -0.0173 C.ar         1    LIG   0.0000
   4 C4          -0.0129    -0.0152    -0.0015 C.ar         1    LIG   0.0000
   5 C5          -0.0182     1.3755     0.0089 C.ar         1    LIG   0.0000
   6 Cl6         -1.5701     2.2470     0.0290 Cl           1    LIG   0.0000
   7 C7           1.1719     2.0956     0.0027 C.ar         1    LIG   0.0000
   8 C8           2.3845     1.4142    -0.0133 C.ar         1    LIG   0.0000
   9 C9           3.6145     2.1821    -0.0195 C.ar         1    LIG   0.0000
  10 C10          4.4046     2.2019    -1.1644 C.ar         1    LIG   0.0000
  11 C11          5.5823     2.9416    -1.1587 C.ar         1    LIG   0.0000
  12 C12          5.9707     3.6545    -0.0294 C.ar         1    LIG   0.0000
  13 C13          5.1654     3.6206     1.1042 C.ar         1    LIG   0.0000
  14 C14          5.5814     4.3959     2.3437 C.3          1    LIG   0.0000
  15 F15          4.9504     3.9047     3.4065 F            1    LIG   0.0000
  16 F16          6.8953     4.2831     2.5169 F            1    LIG   0.0000
  17 F17          5.2627     5.6782     2.1923 F            1    LIG   0.0000
  18 C18          3.9837     2.8872     1.1209 C.ar         1    LIG   0.0000
  19 H            3.5893    -1.6397    -0.0455 H            1    LIG   0.0000
  20 H            1.2198    -1.6879    -0.0247 H            1    LIG   0.0000
  21 H           -0.8733    -0.5249     0.0022 H            1    LIG   0.0000
  22 H            1.1559     3.0954     0.0097 H            1    LIG   0.0000
  23 H            4.1298     1.6918    -1.9794 H            1    LIG   0.0000
  24 H            6.1571     2.9611    -1.9768 H            1    LIG   0.0000
  25 H            6.8185     4.1848    -0.0324 H            1    LIG   0.0000
  26 H            3.4093     2.8672     1.9392 H            1    LIG   0.0000
@<TRIPOS>BOND
   1        1        2 1
   2        2        3 ar
   3        3        4 ar
   4        4        5 ar
   5        5        6 1
   6        5        7 ar
   7        7        8 ar
   8        8        2 ar
   9        8        9 1
  10        9       10 ar
  11       10       11 ar
  12       11       12 ar
  13       12       13 ar
  14       13       14 1
  15       14       15 1
  16       14       16 1
  17       14       17 1
  18       13       18 ar
  19       18        9 ar
  20        1       19 1
  21        3       20 1
  22        4       21 1
  23        7       22 1
  24       10       23 1
  25       11       24 1
  26       12       25 1
  27       18       26 1

@<TRIPOS>MOLECULE

  26   27
SMALL
USER_CHARGES
@<TRIPOS>ATOM
   1 O1           3.5777    -0.6398    -0.0387 O.3          1    LIG   0.0000
   2 C2           2.4003     0.0217    -0.0228 C.ar         1    LIG   0.0000
   3 C3           1.2045    -0.6880    -0.0173 C.ar         1    LIG   0.0000
   4 C4          -0.0129    -0.0152    -0.0015 C.ar         1    LIG   0.0000
   5 C5          -0.0182     1.3755     0.0089 C.ar         1    LIG   0.0000
   6 Cl6         -1.5701     2.2470     0.0290 Cl           1    LIG   0.0000
   7 C7           1.1719     2.0956     0.0027 C.ar         1    LIG   0.0000
   8 C8           2.3845     1.4142    -0.0133 C.ar         1    LIG   0.0000
   9 C9           3.6145     2.1821    -0.0195 C.ar         1    LIG   0.0000
  10 C10          4.7455     1.6601    -0.6391 C.ar         1    LIG   0.0000
  11 C11          5.9197     2.4054    -0.6385 C.ar         1    LIG   0.0000
  12 C12          5.9702     3.6553    -0.0306 C.ar         1    LIG   0.0000
  13 C13          4.8273     4.1579     0.5828 C.ar         1    LIG   0.0000
  14 C14          4.8724     5.5226     1.2505 C.3          1    LIG   0.0000
  15 F15          5.3903     5.4029     2.4697 F            1    LIG   0.0000
  16 F16          5.6269     6.3453     0.5273 F            1    LIG   0.0000
  17 F17          3.6397     6.0140     1.3387 F            1    LIG   0.0000
  18 C18          3.6425     3.4295     0.5947 C.ar         1    LIG   0.0000
  19 H            3.5893    -1.6397    -0.0455 H            1    LIG   0.0000
  20 H            1.2198    -1.6879    -0.0247 H            1    LIG   0.0000
  21 H           -0.8733    -0.5249     0.0022 H            1    LIG   0.0000
  22 H            1.1559     3.0954     0.0097 H            1    LIG   0.0000
  23 H            4.7146     0.7623    -1.0783 H            1    LIG   0.0000
  24 H            6.7379     2.0381    -1.0807 H            1    LIG   0.0000
  25 H            6.8176     4.1862    -0.0345 H            1    LIG   0.0000
  26 H            2.8244     3.7967     1.0374 H            1    LIG   0.0000
@<TRIPOS>BOND
   1        1        2 1
   2        2        3 ar
   3        3        4 ar
   4        4        5 ar
   5        5        6 1
   6        5        7 ar
   7        7        8 ar
   8        8        2 ar
   9        8        9 1
  10        9       10 ar
  11       10       11 ar
  12       11       12 ar
  13       12       13 ar
  14       13       14 1
  15       14       15 1
  16       14       16 1
  17       14       17 1
  18       13       18 ar
  19       18        9 ar
  20        1       19 1
  21        3       20 1
  22        4       21 1
  23        7       22 1
  24       10       23 1
  25       11       24 1
  26       12       25 1
  27       18       26 1

@<TRIPOS>MOLECULE

  26   27
SMALL
USER_CHARGES
@<TRIPOS>ATOM
   1 O1           3.5777    -0.6398    -0.0387 O.3          1    LIG   0.0000
   2 C2           2.4003     0.0217    -0.0228 C.ar         1    LIG   0.0000
   3 C3           1.2045    -0.6880    -0.0173 C.ar         1    LIG   0.0000
   4 C4          -0.0129    -0.0152    -0.0015 C.ar         1    LIG   0.0000
   5 C5          -0.0182     1.3755     0.0089 C.ar         1    LIG   0.0000
   6 Cl6         -1.5701     2.2470     0.0290 Cl           1    LIG   0.0000
   7 C7           1.1719     2.0956     0.0027 C.ar         1    LIG   0.0000
   8 C8           2.3845     1.4142    -0.0133 C.ar         1    LIG   0.0000
   9 C9           3.6145     2.1821    -0.0195 C.ar         1    LIG   0.0000
  10 C10          4.2962     2.3751    -1.2168 C.ar         1    LIG   0.0000
  11 C11          5.4750     3.1131    -1.2106 C.ar         1    LIG   0.0000
  12 C12          5.9709     3.6541    -0.0293 C.ar         1    LIG   0.0000
  13 C13          5.2729     3.4487     1.1563 C.ar         1    LIG   0.0000
  14 C14          5.8070     4.0355     2.4528 C.3          1    LIG   0.0000
  15 F15          5.0184     3.6741     3.4610 F            1    LIG   0.0000
  16 F16          7.0389     3.5835     2.6697 F            1    LIG   0.0000
  17 F17          5.8311     5.3622     2.3623 F            1    LIG   0.0000
  18 C18          4.0923     2.7137     1.1735 C.ar         1    LIG   0.0000
  19 H            3.5893    -1.6397    -0.0455 H            1    LIG   0.0000
  20 H            1.2198    -1.6879    -0.0247 H            1    LIG   0.0000
  21 H           -0.8733    -0.5249     0.0022 H            1    LIG   0.0000
  22 H            1.1559     3.0954     0.0097 H            1    LIG   0.0000
  23 H            3.9437     1.9890    -2.0693 H            1    LIG   0.0000
  24 H            5.9723     3.2564    -2.0663 H            1    LIG   0.0000
  25 H            6.8188     4.1843    -0.0321 H            1    LIG   0.0000
  26 H            3.5954     2.5699     2.0293 H            1    LIG   0.0000
@<TRIPOS>BOND
   1        1        2 1
   2        2        3 ar
   3        3        4 ar
   4        4        5 ar
   5        5        6 1
   6        5        7 ar
   7        7        8 ar
   8        8        2 ar
   9        8        9 1
  10        9       10 ar
  11       10       11 ar
  12       11       12 ar
  13       12       13 ar
  14       13       14 1
  15       14       15 1
  16       14       16 1
  17       14       17 1
  18       13       18 ar
  19       18        9 ar
  20        1       19 1
  21        3       20 1
  22        4       21 1
  23        7       22 1
  24       10       23 1
  25       11       24 1
  26       12       25 1
  27       18       26 1

@<TRIPOS>MOLECULE

  26   27
SMALL
USER_CHARGES
@<TRIPOS>ATOM
   1 O1           3.5777    -0.6398    -0.0387 O.3          1    LIG   0.0000
   2 C2           2.4003     0.0217    -0.0228 C.ar         1    LIG   0.0000
   3 C3           1.2045    -0.6880    -0.0173 C.ar         1    LIG   0.0000
   4 C4          -0.0129    -0.0152    -0.0015 C.ar         1    LIG   0.0000
   5 C5          -0.0182     1.3755     0.0089 C.ar         1    LIG   0.0000
   6 Cl6         -1.5701     2.2470     0.0290 Cl           1    LIG   0.0000
   7 C7           1.1719     2.0956     0.0027 C.ar         1    LIG   0.0000
   8 C8           2.3845     1.4142    -0.0133 C.ar         1    LIG   0.0000
   9 C9           3.6145     2.1821    -0.0195 C.ar         1    LIG   0.0000
  10 C10          4.6168     1.8787     0.8963 C.ar         1    LIG   0.0000
  11 C11          5.7921     2.6222     0.8813 C.ar         1    LIG   0.0000
  12 C12          5.9707     3.6545    -0.0335 C.ar         1    LIG   0.0000
  13 C13          4.9553     3.9405    -0.9402 C.ar         1    LIG   0.0000
  14 C14          5.1406     5.0672    -1.9436 C.3          1    LIG   0.0000
  15 F15          6.4196     5.4311    -1.9703 F            1    LIG   0.0000
  16 F16          4.7731     4.6499    -3.1517 F            1    LIG   0.0000
  17 F17          4.3913     6.1064    -1.5865 F            1    LIG   0.0000
  18 C18          3.7716     3.2102    -0.9428 C.ar         1    LIG   0.0000
  19 H            3.5893    -1.6397    -0.0455 H            1    LIG   0.0000
  20 H            1.2198    -1.6879    -0.0247 H            1    LIG   0.0000
  21 H           -0.8733    -0.5249     0.0022 H            1    LIG   0.0000
  22 H            1.1559     3.0954     0.0097 H            1    LIG   0.0000
  23 H            4.4940     1.1371     1.5557 H            1    LIG   0.0000
  24 H            6.5178     2.4119     1.5363 H            1    LIG   0.0000
  25 H            6.8185     4.1847    -0.0392 H            1    LIG   0.0000
  26 H            3.0457     3.4210    -1.5975 H            1    LIG   0.0000
@<TRIPOS>BOND
   1        1        2 1
   2        2        3 ar
   3        3        4 ar
   4        4        5 ar
   5        5        6 1
   6        5        7 ar
   7        7        8 ar
   8        8        2 ar
   9        8        9 1
  10        9       10 ar
  11       10       11 ar
  12       11       12 ar
  13       12       13 ar
  14       13       14 1
  15       14       15 1
  16       14       16 1
  17       14       17 1
  18       13       18 ar
  19       18        9 ar
  20        1       19 1
  21        3       20 1
  22        4       21 1
  23        7       22 1
  24       10       23 1
  25       11       24 1
  26       12       25 1
  27       18       26 1

@<TRIPOS>MOLECULE

  26   27
SMALL
USER_CHARGES
@<TRIPOS>ATOM
   1 O1           3.5777    -0.6398    -0.0387 O.3          1    LIG   0.0000
   2 C2           2.4003     0.0217    -0.0228 C.ar         1    LIG   0.0000
   3 C3           1.2045    -0.6880    -0.0173 C.ar         1    LIG   0.0000
   4 C4          -0.0129    -0.0152    -0.0015 C.ar         1    LIG   0.0000
   5 C5          -0.0182     1.3755     0.0089 C.ar         1    LIG   0.0000
   6 Cl6         -1.5701     2.2470     0.0290 Cl           1    LIG   0.0000
   7 C7           1.1719     2.0956     0.0027 C.ar         1    LIG   0.0000
   8 C8           2.3845     1.4142    -0.0133 C.ar         1    LIG   0.0000
   9 C9           3.6145     2.1821    -0.0195 C.ar         1    LIG   0.0000
  10 C10          4.7568     1.6518     0.5714 C.ar         1    LIG   0.0000
  11 C11          5.9308     2.3974     0.5597 C.ar         1    LIG   0.0000
  12 C12          5.9703     3.6550    -0.0329 C.ar         1    LIG   0.0000
  13 C13          4.8163     4.1658    -0.6180 C.ar         1    LIG   0.0000
  14 C14          4.8491     5.5396    -1.2677 C.3          1    LIG   0.0000
  15 F15          6.0552     6.0769    -1.1077 F            1    LIG   0.0000
  16 F16          4.5846     5.4225    -2.5658 F            1    LIG   0.0000
  17 F17          3.9364     6.3213    -0.6979 F            1    LIG   0.0000
  18 C18          3.6313     3.4376    -0.6174 C.ar         1    LIG   0.0000
  19 H            3.5893    -1.6397    -0.0455 H            1    LIG   0.0000
  20 H            1.2198    -1.6879    -0.0247 H            1    LIG   0.0000
  21 H           -0.8733    -0.5249     0.0022 H            1    LIG   0.0000
  22 H            1.1559     3.0954     0.0097 H            1    LIG   0.0000
  23 H            4.7342     0.7477     0.9982 H            1    LIG   0.0000
  24 H            6.7567     2.0247     0.9826 H            1    LIG   0.0000
  25 H            6.8180     4.1856    -0.0384 H            1    LIG   0.0000
  26 H            2.8052     3.8106    -1.0399 H            1    LIG   0.0000
@<TRIPOS>BOND
   1        1        2 1
   2        2        3 ar
   3        3        4 ar
   4        4        5 ar
   5        5        6 1
   6        5        7 ar
   7        7        8 ar
   8        8        2 ar
   9        8        9 1
  10        9       10 ar
  11       10       11 ar
  12       11       12 ar
  13       12       13 ar
  14       13       14 1
  15       14       15 1
  16       14       16 1
  17       14       17 1
  18       13       18 ar
  19       18        9 ar
  20        1       19 1
  21        3       20 1
  22        4       21 1
  23        7       22 1
  24       10       23 1
  25       11       24 1
  26       12       25 1
  27       18       26 1

@<TRIPOS>MOLECULE

  26   27
SMALL
USER_CHARGES
@<TRIPOS>ATOM
   1 O1           3.5777    -0.6398    -0.0387 O.3          1    LIG   0.0000
   2 C2           2.4003     0.0217    -0.0228 C.ar         1    LIG   0.0000
   3 C3           1.2045    -0.6880    -0.0173 C.ar         1    LIG   0.0000
   4 C4          -0.0129    -0.0152    -0.0015 C.ar         1    LIG   0.0000
   5 C5          -0.0182     1.3755     0.0089 C.ar         1    LIG   0.0000
   6 Cl6         -1.5701     2.2470     0.0290 Cl           1    LIG   0.0000
   7 C7           1.1719     2.0956     0.0027 C.ar         1    LIG   0.0000
   8 C8           2.3845     1.4142    -0.0133 C.ar         1    LIG   0.0000
   9 C9           3.6145     2.1821    -0.0195 C.ar         1    LIG   0.0000
  10 C10          4.4260     2.1861     1.1104 C.ar         1    LIG   0.0000
  11 C11          5.6032     2.9265     1.0931 C.ar         1    LIG   0.0000
  12 C12          5.9711     3.6539    -0.0338 C.ar         1    LIG   0.0000
  13 C13          5.1447     3.6355    -1.1525 C.ar         1    LIG   0.0000
  14 C14          5.5376     4.4276    -2.3889 C.3          1    LIG   0.0000
  15 F15          6.8607     4.5569    -2.4305 F            1    LIG   0.0000
  16 F16          5.1203     3.7870    -3.4771 F            1    LIG   0.0000
  17 F17          4.9758     5.6322    -2.3407 F            1    LIG   0.0000
  18 C18          3.9627     2.9024    -1.1571 C.ar         1    LIG   0.0000
  19 H            3.5893    -1.6397    -0.0455 H            1    LIG   0.0000
  20 H            1.2198    -1.6879    -0.0247 H            1    LIG   0.0000
  21 H           -0.8733    -0.5249     0.0022 H            1    LIG   0.0000
  22 H            1.1559     3.0954     0.0097 H            1    LIG   0.0000
  23 H            4.1667     1.6643     1.9232 H            1    LIG   0.0000
  24 H            6.1924     2.9360     1.9010 H            1    LIG   0.0000
  25 H            6.8192     4.1836    -0.0397 H            1    LIG   0.0000
  26 H            3.3732     2.8934    -1.9648 H            1    LIG   0.0000
@<TRIPOS>BOND
   1        1        2 1
   2        2        3 ar
   3        3        4 ar
   4        4        5 ar
   5        5        6 1
   6        5        7 ar
   7        7        8 ar
   8        8        2 ar
   9        8        9 1
  10        9       10 ar
  11       10       11 ar
  12       11       12 ar
  13       12       13 ar
  14       13       14 1
  15       14       15 1
  16       14       16 1
  17       14       17 1
  18       13       18 ar
  19       18        9 ar
  20        1       19 1
  21        3       20 1
  22        4       21 1
  23        7       22 1
  24       10       23 1
  25       11       24 1
  26       12       25 1
  27       18       26 1

@<TRIPOS>MOLECULE

  26   27
SMALL
USER_CHARGES
@<TRIPOS>ATOM
   1 O1           3.5777    -0.6398    -0.0387 O.3          1    LIG   0.0000
   2 C2           2.4003     0.0217    -0.0228 C.ar         1    LIG   0.0000
   3 C3           1.2045    -0.6880    -0.0173 C.ar         1    LIG   0.0000
   4 C4          -0.0129    -0.0152    -0.0015 C.ar         1    LIG   0.0000
   5 C5          -0.0182     1.3755     0.0089 C.ar         1    LIG   0.0000
   6 Cl6         -1.5701     2.2470     0.0290 Cl           1    LIG   0.0000
   7 C7           1.1719     2.0956     0.0027 C.ar         1    LIG   0.0000
   8 C8           2.3845     1.4142    -0.0133 C.ar         1    LIG   0.0000
   9 C9           3.6145     2.1821    -0.0195 C.ar         1    LIG   0.0000
  10 C10          4.3186     2.3586     1.1673 C.ar         1    LIG   0.0000
  11 C11          5.4968     3.0973     1.1493 C.ar         1    LIG   0.0000
  12 C12          5.9713     3.6535    -0.0338 C.ar         1    LIG   0.0000
  13 C13          5.2512     3.4643    -1.2088 C.ar         1    LIG   0.0000
  14 C14          5.7611     4.0687    -2.5070 C.3          1    LIG   0.0000
  15 F15          7.0910     4.0817    -2.4977 F            1    LIG   0.0000
  16 F16          5.3320     3.3404    -3.5337 F            1    LIG   0.0000
  17 F17          5.3065     5.3130    -2.6253 F            1    LIG   0.0000
  18 C18          4.0703     2.7296    -1.2139 C.ar         1    LIG   0.0000
  19 H            3.5893    -1.6397    -0.0455 H            1    LIG   0.0000
  20 H            1.2198    -1.6879    -0.0247 H            1    LIG   0.0000
  21 H           -0.8733    -0.5249     0.0022 H            1    LIG   0.0000
  22 H            1.1559     3.0954     0.0097 H            1    LIG   0.0000
  23 H            3.9824     1.9602     2.0207 H            1    LIG   0.0000
  24 H            6.0093     3.2301     1.9977 H            1    LIG   0.0000
  25 H            6.8196     4.1830    -0.0397 H            1    LIG   0.0000
  26 H            3.5575     2.5973    -2.0622 H            1    LIG   0.0000
@<TRIPOS>BOND
   1        1        2 1
   2        2        3 ar
   3        3        4 ar
   4        4        5 ar
   5        5        6 1
   6        5        7 ar
   7        7        8 ar
   8        8        2 ar
   9        8        9 1
  10        9       10 ar
  11       10       11 ar
  12       11       12 ar
  13       12       13 ar
  14       13       14 1
  15       14       15 1
  16       14       16 1
  17       14       17 1
  18       13       18 ar
  19       18        9 ar
  20        1       19 1
  21        3       20 1
  22        4       21 1
  23        7       22 1
  24       10       23 1
  25       11       24 1
  26       12       25 1
  27       18       26 1

