@<TRIPOS>MOLECULE
*****
 26 27 0 0 0
SMALL
USER_CHARGES

@<TRIPOS>ATOM
      1 O1          3.5777   -0.6398   -0.0387 O.3     1  LIG1        0.0000
      2 C2          2.4003    0.0217   -0.0228 C.ar    1  LIG1        0.0000
      3 C3          1.2045   -0.6880   -0.0173 C.ar    1  LIG1        0.0000
      4 C4         -0.0129   -0.0152   -0.0015 C.ar    1  LIG1        0.0000
      5 C5         -0.0182    1.3755    0.0089 C.ar    1  LIG1        0.0000
      6 Cl6        -1.5701    2.2470    0.0290 Cl      1  LIG1        0.0000
      7 C7          1.1719    2.0956    0.0027 C.ar    1  LIG1        0.0000
      8 C8          2.3845    1.4142   -0.0133 C.ar    1  LIG1        0.0000
      9 C9          3.6145    2.1821   -0.0195 C.ar    1  LIG1        0.0000
     10 C10         4.7455    1.6601   -0.6391 C.ar    1  LIG1        0.0000
     11 C11         5.9197    2.4054   -0.6385 C.ar    1  LIG1        0.0000
     12 C12         5.9702    3.6553   -0.0306 C.ar    1  LIG1        0.0000
     13 C13         4.8273    4.1579    0.5828 C.ar    1  LIG1        0.0000
     14 C14         4.8724    5.5226    1.2505 C.3     1  LIG1        0.0000
     15 F15         5.3903    5.4029    2.4697 F       1  LIG1        0.0000
     16 F16         5.6269    6.3453    0.5273 F       1  LIG1        0.0000
     17 F17         3.6397    6.0140    1.3387 F       1  LIG1        0.0000
     18 C18         3.6425    3.4295    0.5947 C.ar    1  LIG1        0.0000
     19 H           3.5893   -1.6397   -0.0455 H       1  LIG1        0.0000
     20 H           1.2198   -1.6879   -0.0247 H       1  LIG1        0.0000
     21 H          -0.8733   -0.5249    0.0022 H       1  LIG1        0.0000
     22 H           1.1559    3.0954    0.0097 H       1  LIG1        0.0000
     23 H           4.7146    0.7623   -1.0783 H       1  LIG1        0.0000
     24 H           6.7379    2.0381   -1.0807 H       1  LIG1        0.0000
     25 H           6.8176    4.1862   -0.0345 H       1  LIG1        0.0000
     26 H           2.8244    3.7967    1.0374 H       1  LIG1        0.0000
@<TRIPOS>BOND
     1     1     2    1
     2     2     3   ar
     3     3     4   ar
     4     4     5   ar
     5     5     6    1
     6     5     7   ar
     7     7     8   ar
     8     8     2   ar
     9     8     9    1
    10     9    10   ar
    11    10    11   ar
    12    11    12   ar
    13    12    13   ar
    14    13    14    1
    15    14    15    1
    16    14    16    1
    17    14    17    1
    18    13    18   ar
    19    18     9   ar
    20     1    19    1
    21     3    20    1
    22     4    21    1
    23     7    22    1
    24    10    23    1
    25    11    24    1
    26    12    25    1
    27    18    26    1
