@<TRIPOS>MOLECULE
*****
 26 27 0 0 0
SMALL
USER_CHARGES

@<TRIPOS>ATOM
      1 O1          3.5777   -0.6398   -0.0387 O.3     1  LIG1        0.0000
      2 C2          2.4003    0.0217   -0.0228 C.ar    1  LIG1        0.0000
      3 C3          1.2045   -0.6880   -0.0173 C.ar    1  LIG1        0.0000
      4 C4         -0.0129   -0.0152   -0.0015 C.ar    1  LIG1        0.0000
      5 C5         -0.0182    1.3755    0.0089 C.ar    1  LIG1        0.0000
      6 Cl6        -1.5701    2.2470    0.0290 Cl      1  LIG1        0.0000
      7 C7          1.1719    2.0956    0.0027 C.ar    1  LIG1        0.0000
      8 C8          2.3845    1.4142   -0.0133 C.ar    1  LIG1        0.0000
      9 C9          3.6145    2.1821   -0.0195 C.ar    1  LIG1        0.0000
     10 C10         3.7753    3.2116   -0.9413 C.ar    1  LIG1        0.0000
     11 C11         4.9594    3.9412   -0.9382 C.ar    1  LIG1        0.0000
     12 C12         5.9720    3.6525   -0.0295 C.ar    1  LIG1        0.0000
     13 C13         5.7897    2.6188    0.8834 C.ar    1  LIG1        0.0000
     14 C14         6.8906    2.2951    1.8802 C.3     1  LIG1        0.0000
     15 F15         6.4228    2.4328    3.1176 F       1  LIG1        0.0000
     16 F16         7.2998    1.0429    1.6977 F       1  LIG1        0.0000
     17 F17         7.9126    3.1265    1.6975 F       1  LIG1        0.0000
     18 C18         4.6139    1.8760    0.8979 C.ar    1  LIG1        0.0000
     19 H           3.5893   -1.6397   -0.0455 H       1  LIG1        0.0000
     20 H           1.2198   -1.6879   -0.0247 H       1  LIG1        0.0000
     21 H          -0.8733   -0.5249    0.0022 H       1  LIG1        0.0000
     22 H           1.1559    3.0954    0.0097 H       1  LIG1        0.0000
     23 H           3.0503    3.4239   -1.5964 H       1  LIG1        0.0000
     24 H           5.0843    4.6825   -1.5975 H       1  LIG1        0.0000
     25 H           6.8206    4.1815   -0.0323 H       1  LIG1        0.0000
     26 H           4.4893    1.1342    1.5568 H       1  LIG1        0.0000
@<TRIPOS>BOND
     1     1     2    1
     2     2     3   ar
     3     3     4   ar
     4     4     5   ar
     5     5     6    1
     6     5     7   ar
     7     7     8   ar
     8     8     2   ar
     9     8     9    1
    10     9    10   ar
    11    10    11   ar
    12    11    12   ar
    13    12    13   ar
    14    13    14    1
    15    14    15    1
    16    14    16    1
    17    14    17    1
    18    13    18   ar
    19    18     9   ar
    20     1    19    1
    21     3    20    1
    22     4    21    1
    23     7    22    1
    24    10    23    1
    25    11    24    1
    26    12    25    1
    27    18    26    1
