@<TRIPOS>MOLECULE

  38   39
SMALL
USER_CHARGES
@<TRIPOS>ATOM
   1 C1          -1.2544     2.0386     1.0000 C.3          1    LIG   0.0000
   2 C2           0.2400     2.3164     1.0000 C.3          1    LIG   0.0000
   3 C3           1.0000     1.0000     1.0000 C.2          1    LIG   0.0000
   4 C4           2.3000     1.0000     1.0000 C.2          1    LIG   0.0000
   5 C5           3.0600     2.3164     1.0000 C.3          1    LIG   0.0000
   6 C6           3.9339     2.3969     2.2411 C.3          1    LIG   0.0000
   7 N7           4.6697     3.6713     2.2411 N.pl3        1    LIG   0.0000
   8 C8           3.9303     4.8706     2.6924 C.3          1    LIG   0.0000
   9 C9           3.1640     5.6302     1.6108 C.3          1    LIG   0.0000
  10 C10          3.8616     5.7203     0.2558 C.3          1    LIG   0.0000
  11 S11          5.6158     6.0593     0.5452 S.3          1    LIG   0.0000
  12 C12          6.5871     4.7115     1.0597 C.ar         1    LIG   0.0000
  13 C13          7.9260     4.7178     0.6760 C.ar         1    LIG   0.0000
  14 C14          8.7314     3.6534     1.0670 C.ar         1    LIG   0.0000
  15 C15          8.2055     2.6125     1.8233 C.ar         1    LIG   0.0000
  16 C16          6.8654     2.6439     2.1949 C.ar         1    LIG   0.0000
  17 C17          6.0198     3.6895     1.8287 C.ar         1    LIG   0.0000
  18 H           -1.7544     2.9046     1.0000 H            1    LIG   0.0000
  19 H           -1.4960     1.5142     0.1835 H            1    LIG   0.0000
  20 H           -1.4960     1.5142     1.8165 H            1    LIG   0.0000
  21 H            0.4816     2.8407     0.1835 H            1    LIG   0.0000
  22 H            0.4816     2.8407     1.8165 H            1    LIG   0.0000
  23 H            0.5000     0.1340     1.0000 H            1    LIG   0.0000
  24 H            2.8000     0.1340     1.0000 H            1    LIG   0.0000
  25 H            2.4102     3.0764     1.0000 H            1    LIG   0.0000
  26 H            3.6349     2.3693     0.1835 H            1    LIG   0.0000
  27 H            3.3590     2.3439     3.0576 H            1    LIG   0.0000
  28 H            4.5837     1.6368     2.2411 H            1    LIG   0.0000
  29 H            4.5902     5.5016     3.1003 H            1    LIG   0.0000
  30 H            3.2723     4.5810     3.3875 H            1    LIG   0.0000
  31 H            2.2853     5.1722     1.4757 H            1    LIG   0.0000
  32 H            3.0074     6.5614     1.9398 H            1    LIG   0.0000
  33 H            3.7604     4.8551    -0.2353 H            1    LIG   0.0000
  34 H            3.4585     6.4592    -0.2841 H            1    LIG   0.0000
  35 H            8.2993     5.4695     0.1324 H            1    LIG   0.0000
  36 H            9.6956     3.6369     0.8022 H            1    LIG   0.0000
  37 H            8.7865     1.8465     2.0984 H            1    LIG   0.0000
  38 H            6.4971     1.8923     2.7421 H            1    LIG   0.0000
@<TRIPOS>BOND
   1        1        2 1
   2        2        3 1
   3        3        4 2
   4        4        5 1
   5        5        6 1
   6        6        7 1
   7        7        8 1
   8        8        9 1
   9        9       10 1
  10       10       11 1
  11       11       12 1
  12       12       13 ar
  13       13       14 ar
  14       14       15 ar
  15       15       16 ar
  16       16       17 ar
  17       17       12 ar
  18       17        7 1
  19        1       18 1
  20        1       19 1
  21        1       20 1
  22        2       21 1
  23        2       22 1
  24        3       23 1
  25        4       24 1
  26        5       25 1
  27        5       26 1
  28        6       27 1
  29        6       28 1
  30        8       29 1
  31        8       30 1
  32        9       31 1
  33        9       32 1
  34       10       33 1
  35       10       34 1
  36       13       35 1
  37       14       36 1
  38       15       37 1
  39       16       38 1

@<TRIPOS>MOLECULE

  38   39
SMALL
USER_CHARGES
@<TRIPOS>ATOM
   1 C1          -1.2544     2.0386     1.0000 C.3          1    LIG   0.0000
   2 C2           0.2400     2.3164     1.0000 C.3          1    LIG   0.0000
   3 C3           1.0000     1.0000     1.0000 C.2          1    LIG   0.0000
   4 C4           2.3000     1.0000     1.0000 C.2          1    LIG   0.0000
   5 C5           3.0600     2.3164     1.0000 C.3          1    LIG   0.0000
   6 C6           3.9339     2.3969     2.2411 C.3          1    LIG   0.0000
   7 N7           4.6697     3.6713     2.2411 N.pl3        1    LIG   0.0000
   8 C8           5.8795     3.7452     1.3929 C.3          1    LIG   0.0000
   9 C9           7.1864     3.3079     2.0524 C.3          1    LIG   0.0000
  10 C10          7.3461     3.7085     3.5169 C.3          1    LIG   0.0000
  11 S11          6.7474     5.4060     3.7066 S.3          1    LIG   0.0000
  12 C12          5.0213     5.6155     3.7413 C.ar         1    LIG   0.0000
  13 C13          4.5313     6.6777     4.4973 C.ar         1    LIG   0.0000
  14 C14          3.1552     6.8728     4.5504 C.ar         1    LIG   0.0000
  15 C15          2.2961     6.0243     3.8620 C.ar         1    LIG   0.0000
  16 C16          2.8218     4.9785     3.1106 C.ar         1    LIG   0.0000
  17 C17          4.1930     4.7442     3.0254 C.ar         1    LIG   0.0000
  18 H           -1.7544     2.9046     1.0000 H            1    LIG   0.0000
  19 H           -1.4960     1.5142     0.1835 H            1    LIG   0.0000
  20 H           -1.4960     1.5142     1.8165 H            1    LIG   0.0000
  21 H            0.4816     2.8407     0.1835 H            1    LIG   0.0000
  22 H            0.4816     2.8407     1.8165 H            1    LIG   0.0000
  23 H            0.5000     0.1340     1.0000 H            1    LIG   0.0000
  24 H            2.8000     0.1340     1.0000 H            1    LIG   0.0000
  25 H            2.4102     3.0764     1.0000 H            1    LIG   0.0000
  26 H            3.6349     2.3693     0.1835 H            1    LIG   0.0000
  27 H            3.3590     2.3439     3.0576 H            1    LIG   0.0000
  28 H            4.5837     1.6368     2.2411 H            1    LIG   0.0000
  29 H            5.9885     4.6942     1.0971 H            1    LIG   0.0000
  30 H            5.7296     3.1623     0.5943 H            1    LIG   0.0000
  31 H            7.2413     2.3109     1.9974 H            1    LIG   0.0000
  32 H            7.9423     3.7122     1.5376 H            1    LIG   0.0000
  33 H            6.8109     3.0939     4.0964 H            1    LIG   0.0000
  34 H            8.3100     3.6582     3.7785 H            1    LIG   0.0000
  35 H            5.1540     7.2855     4.9902 H            1    LIG   0.0000
  36 H            2.7813     7.6289     5.0877 H            1    LIG   0.0000
  37 H            1.3070     6.1648     3.9066 H            1    LIG   0.0000
  38 H            2.1960     4.3755     2.6158 H            1    LIG   0.0000
@<TRIPOS>BOND
   1        1        2 1
   2        2        3 1
   3        3        4 2
   4        4        5 1
   5        5        6 1
   6        6        7 1
   7        7        8 1
   8        8        9 1
   9        9       10 1
  10       10       11 1
  11       11       12 1
  12       12       13 ar
  13       13       14 ar
  14       14       15 ar
  15       15       16 ar
  16       16       17 ar
  17       17       12 ar
  18       17        7 1
  19        1       18 1
  20        1       19 1
  21        1       20 1
  22        2       21 1
  23        2       22 1
  24        3       23 1
  25        4       24 1
  26        5       25 1
  27        5       26 1
  28        6       27 1
  29        6       28 1
  30        8       29 1
  31        8       30 1
  32        9       31 1
  33        9       32 1
  34       10       33 1
  35       10       34 1
  36       13       35 1
  37       14       36 1
  38       15       37 1
  39       16       38 1

@<TRIPOS>MOLECULE

  38   39
SMALL
USER_CHARGES
@<TRIPOS>ATOM
   1 C1          -1.2544     2.0386     1.0000 C.3          1    LIG   0.0000
   2 C2           0.2400     2.3164     1.0000 C.3          1    LIG   0.0000
   3 C3           1.0000     1.0000     1.0000 C.2          1    LIG   0.0000
   4 C4           2.3000     1.0000     1.0000 C.2          1    LIG   0.0000
   5 C5           3.0600     2.3164     1.0000 C.3          1    LIG   0.0000
   6 C6           3.9339     2.3969     2.2411 C.3          1    LIG   0.0000
   7 N7           4.6692     3.6705     2.2411 N.pl3        1    LIG   0.0000
   8 C8           3.9372     4.8751     2.6910 C.3          1    LIG   0.0000
   9 C9           3.9919     5.1821     4.1870 C.3          1    LIG   0.0000
  10 C10          5.3100     4.8643     4.8907 C.3          1    LIG   0.0000
  11 S11          6.6640     5.4802     3.8626 S.3          1    LIG   0.0000
  12 C12          6.9883     4.5322     2.4433 C.ar         1    LIG   0.0000
  13 C13          8.2989     4.6119     1.9915 C.ar         1    LIG   0.0000
  14 C14          8.6074     3.8704     0.8583 C.ar         1    LIG   0.0000
  15 C15          7.6517     3.0898     0.2222 C.ar         1    LIG   0.0000
  16 C16          6.3442     3.0228     0.6808 C.ar         1    LIG   0.0000
  17 C17          6.0066     3.7570     1.8109 C.ar         1    LIG   0.0000
  18 H           -1.7544     2.9046     1.0000 H            1    LIG   0.0000
  19 H           -1.4960     1.5142     0.1835 H            1    LIG   0.0000
  20 H           -1.4960     1.5142     1.8165 H            1    LIG   0.0000
  21 H            0.4816     2.8407     0.1835 H            1    LIG   0.0000
  22 H            0.4816     2.8407     1.8165 H            1    LIG   0.0000
  23 H            0.5000     0.1340     1.0000 H            1    LIG   0.0000
  24 H            2.8000     0.1340     1.0000 H            1    LIG   0.0000
  25 H            2.4102     3.0764     1.0000 H            1    LIG   0.0000
  26 H            3.6349     2.3693     0.1835 H            1    LIG   0.0000
  27 H            3.3590     2.3439     3.0576 H            1    LIG   0.0000
  28 H            4.5837     1.6368     2.2411 H            1    LIG   0.0000
  29 H            2.9764     4.7596     2.4388 H            1    LIG   0.0000
  30 H            4.3172     5.6618     2.2046 H            1    LIG   0.0000
  31 H            3.8101     6.1583     4.3053 H            1    LIG   0.0000
  32 H            3.2713     4.6523     4.6342 H            1    LIG   0.0000
  33 H            5.3330     5.3123     5.7845 H            1    LIG   0.0000
  34 H            5.3994     3.8756     5.0111 H            1    LIG   0.0000
  35 H            8.9835     5.1728     2.4568 H            1    LIG   0.0000
  36 H            9.5378     3.8995     0.4928 H            1    LIG   0.0000
  37 H            7.9122     2.5627    -0.5867 H            1    LIG   0.0000
  38 H            5.6632     2.4614     0.2108 H            1    LIG   0.0000
@<TRIPOS>BOND
   1        1        2 1
   2        2        3 1
   3        3        4 2
   4        4        5 1
   5        5        6 1
   6        6        7 1
   7        7        8 1
   8        8        9 1
   9        9       10 1
  10       10       11 1
  11       11       12 1
  12       12       13 ar
  13       13       14 ar
  14       14       15 ar
  15       15       16 ar
  16       16       17 ar
  17       17       12 ar
  18       17        7 1
  19        1       18 1
  20        1       19 1
  21        1       20 1
  22        2       21 1
  23        2       22 1
  24        3       23 1
  25        4       24 1
  26        5       25 1
  27        5       26 1
  28        6       27 1
  29        6       28 1
  30        8       29 1
  31        8       30 1
  32        9       31 1
  33        9       32 1
  34       10       33 1
  35       10       34 1
  36       13       35 1
  37       14       36 1
  38       15       37 1
  39       16       38 1

@<TRIPOS>MOLECULE

  38   39
SMALL
USER_CHARGES
@<TRIPOS>ATOM
   1 C1          -1.2544     2.0386     1.0000 C.3          1    LIG   0.0000
   2 C2           0.2400     2.3164     1.0000 C.3          1    LIG   0.0000
   3 C3           1.0000     1.0000     1.0000 C.2          1    LIG   0.0000
   4 C4           2.3000     1.0000     1.0000 C.2          1    LIG   0.0000
   5 C5           3.0600     2.3164     1.0000 C.3          1    LIG   0.0000
   6 C6           3.9339     2.3969     2.2411 C.3          1    LIG   0.0000
   7 N7           4.6692     3.6705     2.2411 N.pl3        1    LIG   0.0000
   8 C8           5.8806     3.7531     1.3954 C.3          1    LIG   0.0000
   9 C9           5.6705     4.2130    -0.0466 C.3          1    LIG   0.0000
  10 C10          4.5956     5.2767    -0.2631 C.3          1    LIG   0.0000
  11 S11          4.8018     6.5554     0.9987 S.3          1    LIG   0.0000
  12 C12          4.2784     6.0967     2.5906 C.ar         1    LIG   0.0000
  13 C13          3.8831     7.1613     3.3897 C.ar         1    LIG   0.0000
  14 C14          3.4557     6.8448     4.6728 C.ar         1    LIG   0.0000
  15 C15          3.4231     5.5311     5.1209 C.ar         1    LIG   0.0000
  16 C16          3.8256     4.4769     4.3141 C.ar         1    LIG   0.0000
  17 C17          4.2611     4.7648     3.0266 C.ar         1    LIG   0.0000
  18 H           -1.7544     2.9046     1.0000 H            1    LIG   0.0000
  19 H           -1.4960     1.5142     0.1835 H            1    LIG   0.0000
  20 H           -1.4960     1.5142     1.8165 H            1    LIG   0.0000
  21 H            0.4816     2.8407     0.1835 H            1    LIG   0.0000
  22 H            0.4816     2.8407     1.8165 H            1    LIG   0.0000
  23 H            0.5000     0.1340     1.0000 H            1    LIG   0.0000
  24 H            2.8000     0.1340     1.0000 H            1    LIG   0.0000
  25 H            2.4102     3.0764     1.0000 H            1    LIG   0.0000
  26 H            3.6349     2.3693     0.1835 H            1    LIG   0.0000
  27 H            3.3590     2.3439     3.0576 H            1    LIG   0.0000
  28 H            4.5837     1.6368     2.2411 H            1    LIG   0.0000
  29 H            6.2952     2.8435     1.3676 H            1    LIG   0.0000
  30 H            6.5126     4.3943     1.8306 H            1    LIG   0.0000
  31 H            6.5380     4.5833    -0.3786 H            1    LIG   0.0000
  32 H            5.4207     3.4113    -0.5896 H            1    LIG   0.0000
  33 H            4.6968     5.6796    -1.1728 H            1    LIG   0.0000
  34 H            3.6889     4.8631    -0.1807 H            1    LIG   0.0000
  35 H            3.9051     8.1049     3.0593 H            1    LIG   0.0000
  36 H            3.1653     7.5787     5.2868 H            1    LIG   0.0000
  37 H            3.1015     5.3402     6.0483 H            1    LIG   0.0000
  38 H            3.8030     3.5353     4.6501 H            1    LIG   0.0000
@<TRIPOS>BOND
   1        1        2 1
   2        2        3 1
   3        3        4 2
   4        4        5 1
   5        5        6 1
   6        6        7 1
   7        7        8 1
   8        8        9 1
   9        9       10 1
  10       10       11 1
  11       11       12 1
  12       12       13 ar
  13       13       14 ar
  14       14       15 ar
  15       15       16 ar
  16       16       17 ar
  17       17       12 ar
  18       17        7 1
  19        1       18 1
  20        1       19 1
  21        1       20 1
  22        2       21 1
  23        2       22 1
  24        3       23 1
  25        4       24 1
  26        5       25 1
  27        5       26 1
  28        6       27 1
  29        6       28 1
  30        8       29 1
  31        8       30 1
  32        9       31 1
  33        9       32 1
  34       10       33 1
  35       10       34 1
  36       13       35 1
  37       14       36 1
  38       15       37 1
  39       16       38 1

@<TRIPOS>MOLECULE

  38   39
SMALL
USER_CHARGES
@<TRIPOS>ATOM
   1 C1          -1.2544     2.0386     1.0000 C.3          1    LIG   0.0000
   2 C2           0.2400     2.3164     1.0000 C.3          1    LIG   0.0000
   3 C3           1.0000     1.0000     1.0000 C.2          1    LIG   0.0000
   4 C4           2.3000     1.0000     1.0000 C.2          1    LIG   0.0000
   5 C5           3.0600     2.3164     1.0000 C.3          1    LIG   0.0000
   6 C6           3.9339     2.3969     2.2411 C.3          1    LIG   0.0000
   7 N7           4.6700     3.6719     2.2411 N.pl3        1    LIG   0.0000
   8 C8           3.9359     4.8643     2.6894 C.3          1    LIG   0.0000
   9 C9           4.7423     5.5600     3.7727 C.3          1    LIG   0.0000
  10 C10          4.9680     4.5199     4.8544 C.3          1    LIG   0.0000
  11 S11          6.5340     3.6928     4.4830 S.3          1    LIG   0.0000
  12 C12          6.9856     3.6408     2.8079 C.ar         1    LIG   0.0000
  13 C13          8.3433     3.5756     2.5295 C.ar         1    LIG   0.0000
  14 C14          8.7418     3.5437     1.1973 C.ar         1    LIG   0.0000
  15 C15          7.7874     3.5839     0.1859 C.ar         1    LIG   0.0000
  16 C16          6.4298     3.6445     0.4820 C.ar         1    LIG   0.0000
  17 C17          6.0131     3.6548     1.8149 C.ar         1    LIG   0.0000
  18 H           -1.7544     2.9046     1.0000 H            1    LIG   0.0000
  19 H           -1.4960     1.5142     0.1835 H            1    LIG   0.0000
  20 H           -1.4960     1.5142     1.8165 H            1    LIG   0.0000
  21 H            0.4816     2.8407     0.1835 H            1    LIG   0.0000
  22 H            0.4816     2.8407     1.8165 H            1    LIG   0.0000
  23 H            0.5000     0.1340     1.0000 H            1    LIG   0.0000
  24 H            2.8000     0.1340     1.0000 H            1    LIG   0.0000
  25 H            2.4102     3.0764     1.0000 H            1    LIG   0.0000
  26 H            3.6349     2.3693     0.1835 H            1    LIG   0.0000
  27 H            3.3590     2.3439     3.0576 H            1    LIG   0.0000
  28 H            4.5837     1.6368     2.2411 H            1    LIG   0.0000
  29 H            3.0460     4.5926     3.0557 H            1    LIG   0.0000
  30 H            3.8031     5.4865     1.9180 H            1    LIG   0.0000
  31 H            5.6172     5.8764     3.4062 H            1    LIG   0.0000
  32 H            4.2333     6.3387     4.1395 H            1    LIG   0.0000
  33 H            5.0181     4.9621     5.7499 H            1    LIG   0.0000
  34 H            4.2207     3.8554     4.8522 H            1    LIG   0.0000
  35 H            9.0178     3.5522     3.2674 H            1    LIG   0.0000
  36 H            9.7135     3.4919     0.9667 H            1    LIG   0.0000
  37 H            8.0822     3.5689    -0.7696 H            1    LIG   0.0000
  38 H            5.7556     3.6806    -0.2557 H            1    LIG   0.0000
@<TRIPOS>BOND
   1        1        2 1
   2        2        3 1
   3        3        4 2
   4        4        5 1
   5        5        6 1
   6        6        7 1
   7        7        8 1
   8        8        9 1
   9        9       10 1
  10       10       11 1
  11       11       12 1
  12       12       13 ar
  13       13       14 ar
  14       14       15 ar
  15       15       16 ar
  16       16       17 ar
  17       17       12 ar
  18       17        7 1
  19        1       18 1
  20        1       19 1
  21        1       20 1
  22        2       21 1
  23        2       22 1
  24        3       23 1
  25        4       24 1
  26        5       25 1
  27        5       26 1
  28        6       27 1
  29        6       28 1
  30        8       29 1
  31        8       30 1
  32        9       31 1
  33        9       32 1
  34       10       33 1
  35       10       34 1
  36       13       35 1
  37       14       36 1
  38       15       37 1
  39       16       38 1

@<TRIPOS>MOLECULE

  38   39
SMALL
USER_CHARGES
@<TRIPOS>ATOM
   1 C1          -1.2544     2.0386     1.0000 C.3          1    LIG   0.0000
   2 C2           0.2400     2.3164     1.0000 C.3          1    LIG   0.0000
   3 C3           1.0000     1.0000     1.0000 C.2          1    LIG   0.0000
   4 C4           2.3000     1.0000     1.0000 C.2          1    LIG   0.0000
   5 C5           3.0600     2.3164     1.0000 C.3          1    LIG   0.0000
   6 C6           3.9339     2.3969     2.2411 C.3          1    LIG   0.0000
   7 N7           4.6700     3.6719     2.2411 N.pl3        1    LIG   0.0000
   8 C8           5.8725     3.7462     1.3984 C.3          1    LIG   0.0000
   9 C9           5.7693     4.9670     0.5003 C.3          1    LIG   0.0000
  10 C10          4.4726     4.8059    -0.2714 C.3          1    LIG   0.0000
  11 S11          3.1758     5.6317     0.6829 S.3          1    LIG   0.0000
  12 C12          3.4229     5.6977     2.3997 C.ar         1    LIG   0.0000
  13 C13          2.8332     6.7569     3.0746 C.ar         1    LIG   0.0000
  14 C14          3.0198     6.8473     4.4499 C.ar         1    LIG   0.0000
  15 C15          3.7872     5.8934     5.1107 C.ar         1    LIG   0.0000
  16 C16          4.3678     4.8350     4.4200 C.ar         1    LIG   0.0000
  17 C17          4.1710     4.7183     3.0423 C.ar         1    LIG   0.0000
  18 H           -1.7544     2.9046     1.0000 H            1    LIG   0.0000
  19 H           -1.4960     1.5142     0.1835 H            1    LIG   0.0000
  20 H           -1.4960     1.5142     1.8165 H            1    LIG   0.0000
  21 H            0.4816     2.8407     0.1835 H            1    LIG   0.0000
  22 H            0.4816     2.8407     1.8165 H            1    LIG   0.0000
  23 H            0.5000     0.1340     1.0000 H            1    LIG   0.0000
  24 H            2.8000     0.1340     1.0000 H            1    LIG   0.0000
  25 H            2.4102     3.0764     1.0000 H            1    LIG   0.0000
  26 H            3.6349     2.3693     0.1835 H            1    LIG   0.0000
  27 H            3.3590     2.3439     3.0576 H            1    LIG   0.0000
  28 H            4.5837     1.6368     2.2411 H            1    LIG   0.0000
  29 H            5.9406     2.9214     0.8371 H            1    LIG   0.0000
  30 H            6.6841     3.8232     1.9776 H            1    LIG   0.0000
  31 H            5.7457     5.8023     1.0497 H            1    LIG   0.0000
  32 H            6.5461     5.0034    -0.1283 H            1    LIG   0.0000
  33 H            4.5561     5.2289    -1.1737 H            1    LIG   0.0000
  34 H            4.2551     3.8356    -0.3770 H            1    LIG   0.0000
  35 H            2.2882     7.4375     2.5849 H            1    LIG   0.0000
  36 H            2.6027     7.5973     4.9632 H            1    LIG   0.0000
  37 H            3.9235     5.9700     6.0984 H            1    LIG   0.0000
  38 H            4.9232     4.1612     4.9073 H            1    LIG   0.0000
@<TRIPOS>BOND
   1        1        2 1
   2        2        3 1
   3        3        4 2
   4        4        5 1
   5        5        6 1
   6        6        7 1
   7        7        8 1
   8        8        9 1
   9        9       10 1
  10       10       11 1
  11       11       12 1
  12       12       13 ar
  13       13       14 ar
  14       14       15 ar
  15       15       16 ar
  16       16       17 ar
  17       17       12 ar
  18       17        7 1
  19        1       18 1
  20        1       19 1
  21        1       20 1
  22        2       21 1
  23        2       22 1
  24        3       23 1
  25        4       24 1
  26        5       25 1
  27        5       26 1
  28        6       27 1
  29        6       28 1
  30        8       29 1
  31        8       30 1
  32        9       31 1
  33        9       32 1
  34       10       33 1
  35       10       34 1
  36       13       35 1
  37       14       36 1
  38       15       37 1
  39       16       38 1

@<TRIPOS>MOLECULE

  38   39
SMALL
USER_CHARGES
@<TRIPOS>ATOM
   1 C1          -1.2544     2.0386     1.0000 C.3          1    LIG   0.0000
   2 C2           0.2400     2.3164     1.0000 C.3          1    LIG   0.0000
   3 C3           1.0000     1.0000     1.0000 C.2          1    LIG   0.0000
   4 C4           2.3000     1.0000     1.0000 C.2          1    LIG   0.0000
   5 C5           3.0600     2.3164     1.0000 C.3          1    LIG   0.0000
   6 C6           3.9339     2.3969     2.2411 C.3          1    LIG   0.0000
   7 N7           4.6700     3.6719     2.2411 N.pl3        1    LIG   0.0000
   8 C8           5.3911     4.0241     3.4730 C.3          1    LIG   0.0000
   9 C9           6.8321     4.3534     3.1225 C.3          1    LIG   0.0000
  10 C10          7.3749     3.1302     2.4069 C.3          1    LIG   0.0000
  11 S11          7.0866     3.3738     0.6372 S.3          1    LIG   0.0000
  12 C12          5.7263     4.3678     0.2202 C.ar         1    LIG   0.0000
  13 C13          5.7964     5.0461    -0.9883 C.ar         1    LIG   0.0000
  14 C14          4.7285     5.8608    -1.3493 C.ar         1    LIG   0.0000
  15 C15          3.6314     5.9834    -0.5026 C.ar         1    LIG   0.0000
  16 C16          3.5747     5.2929     0.7034 C.ar         1    LIG   0.0000
  17 C17          4.6293     4.4537     1.0693 C.ar         1    LIG   0.0000
  18 H           -1.7544     2.9046     1.0000 H            1    LIG   0.0000
  19 H           -1.4960     1.5142     0.1835 H            1    LIG   0.0000
  20 H           -1.4960     1.5142     1.8165 H            1    LIG   0.0000
  21 H            0.4816     2.8407     0.1835 H            1    LIG   0.0000
  22 H            0.4816     2.8407     1.8165 H            1    LIG   0.0000
  23 H            0.5000     0.1340     1.0000 H            1    LIG   0.0000
  24 H            2.8000     0.1340     1.0000 H            1    LIG   0.0000
  25 H            2.4102     3.0764     1.0000 H            1    LIG   0.0000
  26 H            3.6349     2.3693     0.1835 H            1    LIG   0.0000
  27 H            3.3590     2.3439     3.0576 H            1    LIG   0.0000
  28 H            4.5837     1.6368     2.2411 H            1    LIG   0.0000
  29 H            5.3681     3.2519     4.1079 H            1    LIG   0.0000
  30 H            4.9592     4.8190     3.8991 H            1    LIG   0.0000
  31 H            6.8705     5.1529     2.5230 H            1    LIG   0.0000
  32 H            7.3597     4.5337     3.9527 H            1    LIG   0.0000
  33 H            8.3545     3.0359     2.5847 H            1    LIG   0.0000
  34 H            6.8984     2.3094     2.7219 H            1    LIG   0.0000
  35 H            6.5939     4.9516    -1.5841 H            1    LIG   0.0000
  36 H            4.7493     6.3580    -2.2167 H            1    LIG   0.0000
  37 H            2.8712     6.5775    -0.7655 H            1    LIG   0.0000
  38 H            2.7829     5.3969     1.3053 H            1    LIG   0.0000
@<TRIPOS>BOND
   1        1        2 1
   2        2        3 1
   3        3        4 2
   4        4        5 1
   5        5        6 1
   6        6        7 1
   7        7        8 1
   8        8        9 1
   9        9       10 1
  10       10       11 1
  11       11       12 1
  12       12       13 ar
  13       13       14 ar
  14       14       15 ar
  15       15       16 ar
  16       16       17 ar
  17       17       12 ar
  18       17        7 1
  19        1       18 1
  20        1       19 1
  21        1       20 1
  22        2       21 1
  23        2       22 1
  24        3       23 1
  25        4       24 1
  26        5       25 1
  27        5       26 1
  28        6       27 1
  29        6       28 1
  30        8       29 1
  31        8       30 1
  32        9       31 1
  33        9       32 1
  34       10       33 1
  35       10       34 1
  36       13       35 1
  37       14       36 1
  38       15       37 1
  39       16       38 1

@<TRIPOS>MOLECULE

  38   39
SMALL
USER_CHARGES
@<TRIPOS>ATOM
   1 C1          -0.6339     2.3969    -0.2411 C.3          1    LIG   0.0000
   2 C2           0.2400     2.3164     1.0000 C.3          1    LIG   0.0000
   3 C3           1.0000     1.0000     1.0000 C.2          1    LIG   0.0000
   4 C4           2.3000     1.0000     1.0000 C.2          1    LIG   0.0000
   5 C5           3.0600     2.3164     1.0000 C.3          1    LIG   0.0000
   6 C6           4.3881     2.1346     1.7165 C.3          1    LIG   0.0000
   7 N7           5.1239     3.4091     1.7165 N.pl3        1    LIG   0.0000
   8 C8           4.7238     4.4124     2.7274 C.3          1    LIG   0.0000
   9 C9           3.6103     5.3725     2.3124 C.3          1    LIG   0.0000
  10 C10          3.6563     5.8388     0.8594 C.3          1    LIG   0.0000
  11 S11          5.3792     6.1959     0.4351 S.3          1    LIG   0.0000
  12 C12          6.3975     4.8210     0.1232 C.ar         1    LIG   0.0000
  13 C13          7.4361     5.0006    -0.7873 C.ar         1    LIG   0.0000
  14 C14          8.2681     3.9209    -1.0635 C.ar         1    LIG   0.0000
  15 C15          8.0622     2.6953    -0.4410 C.ar         1    LIG   0.0000
  16 C16          7.0195     2.5550     0.4689 C.ar         1    LIG   0.0000
  17 C17          6.1609     3.6080     0.7793 C.ar         1    LIG   0.0000
  18 H           -1.1339     3.2629    -0.2411 H            1    LIG   0.0000
  19 H           -0.0590     2.3439    -1.0576 H            1    LIG   0.0000
  20 H           -1.2837     1.6368    -0.2411 H            1    LIG   0.0000
  21 H            0.8898     3.0764     1.0000 H            1    LIG   0.0000
  22 H           -0.3349     2.3693     1.8165 H            1    LIG   0.0000
  23 H            0.5000     0.1340     1.0000 H            1    LIG   0.0000
  24 H            2.8000     0.1340     1.0000 H            1    LIG   0.0000
  25 H            2.5196     3.0133     1.4714 H            1    LIG   0.0000
  26 H            3.2267     2.6050     0.0572 H            1    LIG   0.0000
  27 H            4.2215     1.8459     2.6593 H            1    LIG   0.0000
  28 H            4.9286     1.4377     1.2451 H            1    LIG   0.0000
  29 H            5.5307     4.9586     2.9526 H            1    LIG   0.0000
  30 H            4.4162     3.9206     3.5419 H            1    LIG   0.0000
  31 H            2.7349     4.9127     2.4614 H            1    LIG   0.0000
  32 H            3.6659     6.1812     2.8980 H            1    LIG   0.0000
  33 H            3.3024     5.1195     0.2616 H            1    LIG   0.0000
  34 H            3.1027     6.6646     0.7511 H            1    LIG   0.0000
  35 H            7.5801     5.8848    -1.2318 H            1    LIG   0.0000
  36 H            9.0198     4.0271    -1.7144 H            1    LIG   0.0000
  37 H            8.6595     1.9198    -0.6459 H            1    LIG   0.0000
  38 H            6.8814     1.6704     0.9144 H            1    LIG   0.0000
@<TRIPOS>BOND
   1        1        2 1
   2        2        3 1
   3        3        4 2
   4        4        5 1
   5        5        6 1
   6        6        7 1
   7        7        8 1
   8        8        9 1
   9        9       10 1
  10       10       11 1
  11       11       12 1
  12       12       13 ar
  13       13       14 ar
  14       14       15 ar
  15       15       16 ar
  16       16       17 ar
  17       17       12 ar
  18       17        7 1
  19        1       18 1
  20        1       19 1
  21        1       20 1
  22        2       21 1
  23        2       22 1
  24        3       23 1
  25        4       24 1
  26        5       25 1
  27        5       26 1
  28        6       27 1
  29        6       28 1
  30        8       29 1
  31        8       30 1
  32        9       31 1
  33        9       32 1
  34       10       33 1
  35       10       34 1
  36       13       35 1
  37       14       36 1
  38       15       37 1
  39       16       38 1

@<TRIPOS>MOLECULE

  38   39
SMALL
USER_CHARGES
@<TRIPOS>ATOM
   1 C1          -0.6339     2.3969    -0.2411 C.3          1    LIG   0.0000
   2 C2           0.2400     2.3164     1.0000 C.3          1    LIG   0.0000
   3 C3           1.0000     1.0000     1.0000 C.2          1    LIG   0.0000
   4 C4           2.3000     1.0000     1.0000 C.2          1    LIG   0.0000
   5 C5           3.0600     2.3164     1.0000 C.3          1    LIG   0.0000
   6 C6           4.3881     2.1346     1.7165 C.3          1    LIG   0.0000
   7 N7           5.1239     3.4091     1.7165 N.pl3        1    LIG   0.0000
   8 C8           5.8492     3.7627     0.4766 C.3          1    LIG   0.0000
   9 C9           7.2850     3.2509     0.3725 C.3          1    LIG   0.0000
  10 C10          8.0861     3.2813     1.6717 C.3          1    LIG   0.0000
  11 S11          7.7281     4.8398     2.5197 S.3          1    LIG   0.0000
  12 C12          6.2026     4.9335     3.3495 C.ar         1    LIG   0.0000
  13 C13          6.1509     5.7427     4.4820 C.ar         1    LIG   0.0000
  14 C14          4.9474     5.8381     5.1726 C.ar         1    LIG   0.0000
  15 C15          3.8272     5.1403     4.7364 C.ar         1    LIG   0.0000
  16 C16          3.9141     4.3478     3.5965 C.ar         1    LIG   0.0000
  17 C17          5.0970     4.2222     2.8704 C.ar         1    LIG   0.0000
  18 H           -1.1339     3.2629    -0.2411 H            1    LIG   0.0000
  19 H           -0.0590     2.3439    -1.0576 H            1    LIG   0.0000
  20 H           -1.2837     1.6368    -0.2411 H            1    LIG   0.0000
  21 H            0.8898     3.0764     1.0000 H            1    LIG   0.0000
  22 H           -0.3349     2.3693     1.8165 H            1    LIG   0.0000
  23 H            0.5000     0.1340     1.0000 H            1    LIG   0.0000
  24 H            2.8000     0.1340     1.0000 H            1    LIG   0.0000
  25 H            2.5196     3.0133     1.4714 H            1    LIG   0.0000
  26 H            3.2267     2.6050     0.0572 H            1    LIG   0.0000
  27 H            4.2215     1.8459     2.6593 H            1    LIG   0.0000
  28 H            4.9286     1.4377     1.2451 H            1    LIG   0.0000
  29 H            5.8743     4.7602     0.4105 H            1    LIG   0.0000
  30 H            5.3348     3.3903    -0.2958 H            1    LIG   0.0000
  31 H            7.2527     2.3043     0.0518 H            1    LIG   0.0000
  32 H            7.7655     3.8143    -0.2996 H            1    LIG   0.0000
  33 H            7.8199     2.5113     2.2517 H            1    LIG   0.0000
  34 H            9.0634     3.2232     1.4684 H            1    LIG   0.0000
  35 H            6.9596     6.2430     4.7912 H            1    LIG   0.0000
  36 H            4.8876     6.4128     5.9888 H            1    LIG   0.0000
  37 H            2.9650     5.2075     5.2384 H            1    LIG   0.0000
  38 H            3.1020     3.8525     3.2882 H            1    LIG   0.0000
@<TRIPOS>BOND
   1        1        2 1
   2        2        3 1
   3        3        4 2
   4        4        5 1
   5        5        6 1
   6        6        7 1
   7        7        8 1
   8        8        9 1
   9        9       10 1
  10       10       11 1
  11       11       12 1
  12       12       13 ar
  13       13       14 ar
  14       14       15 ar
  15       15       16 ar
  16       16       17 ar
  17       17       12 ar
  18       17        7 1
  19        1       18 1
  20        1       19 1
  21        1       20 1
  22        2       21 1
  23        2       22 1
  24        3       23 1
  25        4       24 1
  26        5       25 1
  27        5       26 1
  28        6       27 1
  29        6       28 1
  30        8       29 1
  31        8       30 1
  32        9       31 1
  33        9       32 1
  34       10       33 1
  35       10       34 1
  36       13       35 1
  37       14       36 1
  38       15       37 1
  39       16       38 1

@<TRIPOS>MOLECULE

  38   39
SMALL
USER_CHARGES
@<TRIPOS>ATOM
   1 C1          -0.6339     2.3969    -0.2411 C.3          1    LIG   0.0000
   2 C2           0.2400     2.3164     1.0000 C.3          1    LIG   0.0000
   3 C3           1.0000     1.0000     1.0000 C.2          1    LIG   0.0000
   4 C4           2.3000     1.0000     1.0000 C.2          1    LIG   0.0000
   5 C5           3.0600     2.3164     1.0000 C.3          1    LIG   0.0000
   6 C6           4.3881     2.1346     1.7165 C.3          1    LIG   0.0000
   7 N7           5.1234     3.4082     1.7165 N.pl3        1    LIG   0.0000
   8 C8           4.7297     4.4175     2.7243 C.3          1    LIG   0.0000
   9 C9           5.4445     4.3435     4.0729 C.3          1    LIG   0.0000
  10 C10          6.9164     3.9368     4.0322 C.3          1    LIG   0.0000
  11 S11          7.7249     4.8677     2.7095 S.3          1    LIG   0.0000
  12 C12          7.3470     4.3250     1.1029 C.ar         1    LIG   0.0000
  13 C13          8.3349     4.5910     0.1640 C.ar         1    LIG   0.0000
  14 C14          8.0788     4.1756    -1.1363 C.ar         1    LIG   0.0000
  15 C15          6.8983     3.5247    -1.4685 C.ar         1    LIG   0.0000
  16 C16          5.9169     3.2695    -0.5219 C.ar         1    LIG   0.0000
  17 C17          6.1452     3.6770     0.7865 C.ar         1    LIG   0.0000
  18 H           -1.1339     3.2629    -0.2411 H            1    LIG   0.0000
  19 H           -0.0590     2.3439    -1.0576 H            1    LIG   0.0000
  20 H           -1.2837     1.6368    -0.2411 H            1    LIG   0.0000
  21 H            0.8898     3.0764     1.0000 H            1    LIG   0.0000
  22 H           -0.3349     2.3693     1.8165 H            1    LIG   0.0000
  23 H            0.5000     0.1340     1.0000 H            1    LIG   0.0000
  24 H            2.8000     0.1340     1.0000 H            1    LIG   0.0000
  25 H            2.5196     3.0133     1.4714 H            1    LIG   0.0000
  26 H            3.2267     2.6050     0.0572 H            1    LIG   0.0000
  27 H            4.2215     1.8459     2.6593 H            1    LIG   0.0000
  28 H            4.9286     1.4377     1.2451 H            1    LIG   0.0000
  29 H            3.7496     4.3132     2.8930 H            1    LIG   0.0000
  30 H            4.9066     5.3216     2.3352 H            1    LIG   0.0000
  31 H            5.3888     5.2468     4.4982 H            1    LIG   0.0000
  32 H            4.9592     3.6777     4.6398 H            1    LIG   0.0000
  33 H            7.3501     4.1477     4.9082 H            1    LIG   0.0000
  34 H            6.9916     2.9563     3.8506 H            1    LIG   0.0000
  35 H            9.1849     5.0566     0.4108 H            1    LIG   0.0000
  36 H            8.7591     4.3491    -1.8484 H            1    LIG   0.0000
  37 H            6.7519     3.2326    -2.4136 H            1    LIG   0.0000
  38 H            5.0682     2.8048    -0.7745 H            1    LIG   0.0000
@<TRIPOS>BOND
   1        1        2 1
   2        2        3 1
   3        3        4 2
   4        4        5 1
   5        5        6 1
   6        6        7 1
   7        7        8 1
   8        8        9 1
   9        9       10 1
  10       10       11 1
  11       11       12 1
  12       12       13 ar
  13       13       14 ar
  14       14       15 ar
  15       15       16 ar
  16       16       17 ar
  17       17       12 ar
  18       17        7 1
  19        1       18 1
  20        1       19 1
  21        1       20 1
  22        2       21 1
  23        2       22 1
  24        3       23 1
  25        4       24 1
  26        5       25 1
  27        5       26 1
  28        6       27 1
  29        6       28 1
  30        8       29 1
  31        8       30 1
  32        9       31 1
  33        9       32 1
  34       10       33 1
  35       10       34 1
  36       13       35 1
  37       14       36 1
  38       15       37 1
  39       16       38 1

@<TRIPOS>MOLECULE

  38   39
SMALL
USER_CHARGES
@<TRIPOS>ATOM
   1 C1          -0.6339     2.3969    -0.2411 C.3          1    LIG   0.0000
   2 C2           0.2400     2.3164     1.0000 C.3          1    LIG   0.0000
   3 C3           1.0000     1.0000     1.0000 C.2          1    LIG   0.0000
   4 C4           2.3000     1.0000     1.0000 C.2          1    LIG   0.0000
   5 C5           3.0600     2.3164     1.0000 C.3          1    LIG   0.0000
   6 C6           4.3881     2.1346     1.7165 C.3          1    LIG   0.0000
   7 N7           5.1234     3.4082     1.7165 N.pl3        1    LIG   0.0000
   8 C8           5.8517     3.7697     0.4803 C.3          1    LIG   0.0000
   9 C9           5.0650     4.5626    -0.5626 C.3          1    LIG   0.0000
  10 C10          4.0661     5.5824    -0.0188 C.3          1    LIG   0.0000
  11 S11          4.8721     6.5148     1.3044 S.3          1    LIG   0.0000
  12 C12          5.0641     5.6431     2.7950 C.ar         1    LIG   0.0000
  13 C13          5.1163     6.4493     3.9244 C.ar         1    LIG   0.0000
  14 C14          5.2690     5.7979     5.1415 C.ar         1    LIG   0.0000
  15 C15          5.3576     4.4143     5.2153 C.ar         1    LIG   0.0000
  16 C16          5.3091     3.6204     4.0787 C.ar         1    LIG   0.0000
  17 C17          5.1600     4.2458     2.8471 C.ar         1    LIG   0.0000
  18 H           -1.1339     3.2629    -0.2411 H            1    LIG   0.0000
  19 H           -0.0590     2.3439    -1.0576 H            1    LIG   0.0000
  20 H           -1.2837     1.6368    -0.2411 H            1    LIG   0.0000
  21 H            0.8898     3.0764     1.0000 H            1    LIG   0.0000
  22 H           -0.3349     2.3693     1.8165 H            1    LIG   0.0000
  23 H            0.5000     0.1340     1.0000 H            1    LIG   0.0000
  24 H            2.8000     0.1340     1.0000 H            1    LIG   0.0000
  25 H            2.5196     3.0133     1.4714 H            1    LIG   0.0000
  26 H            3.2267     2.6050     0.0572 H            1    LIG   0.0000
  27 H            4.2215     1.8459     2.6593 H            1    LIG   0.0000
  28 H            4.9286     1.4377     1.2451 H            1    LIG   0.0000
  29 H            6.1599     2.9216     0.0493 H            1    LIG   0.0000
  30 H            6.6459     4.3174     0.7438 H            1    LIG   0.0000
  31 H            5.7231     5.0538    -1.1332 H            1    LIG   0.0000
  32 H            4.5587     3.9090    -1.1251 H            1    LIG   0.0000
  33 H            3.7866     6.2051    -0.7496 H            1    LIG   0.0000
  34 H            3.2622     5.1095     0.3418 H            1    LIG   0.0000
  35 H            5.0477     7.4452     3.8646 H            1    LIG   0.0000
  36 H            5.3162     6.3368     5.9825 H            1    LIG   0.0000
  37 H            5.4588     3.9792     6.1100 H            1    LIG   0.0000
  38 H            5.3796     2.6251     4.1441 H            1    LIG   0.0000
@<TRIPOS>BOND
   1        1        2 1
   2        2        3 1
   3        3        4 2
   4        4        5 1
   5        5        6 1
   6        6        7 1
   7        7        8 1
   8        8        9 1
   9        9       10 1
  10       10       11 1
  11       11       12 1
  12       12       13 ar
  13       13       14 ar
  14       14       15 ar
  15       15       16 ar
  16       16       17 ar
  17       17       12 ar
  18       17        7 1
  19        1       18 1
  20        1       19 1
  21        1       20 1
  22        2       21 1
  23        2       22 1
  24        3       23 1
  25        4       24 1
  26        5       25 1
  27        5       26 1
  28        6       27 1
  29        6       28 1
  30        8       29 1
  31        8       30 1
  32        9       31 1
  33        9       32 1
  34       10       33 1
  35       10       34 1
  36       13       35 1
  37       14       36 1
  38       15       37 1
  39       16       38 1

@<TRIPOS>MOLECULE

  38   39
SMALL
USER_CHARGES
@<TRIPOS>ATOM
   1 C1          -0.6339     2.3969    -0.2411 C.3          1    LIG   0.0000
   2 C2           0.2400     2.3164     1.0000 C.3          1    LIG   0.0000
   3 C3           1.0000     1.0000     1.0000 C.2          1    LIG   0.0000
   4 C4           2.3000     1.0000     1.0000 C.2          1    LIG   0.0000
   5 C5           3.0600     2.3164     1.0000 C.3          1    LIG   0.0000
   6 C6           4.3881     2.1346     1.7165 C.3          1    LIG   0.0000
   7 N7           5.1243     3.4096     1.7165 N.pl3        1    LIG   0.0000
   8 C8           4.7273     4.4074     2.7208 C.3          1    LIG   0.0000
   9 C9           5.9621     4.8557     3.4837 C.3          1    LIG   0.0000
  10 C10          6.5732     3.5931     4.0627 C.3          1    LIG   0.0000
  11 S11          7.7730     2.9775     2.8562 S.3          1    LIG   0.0000
  12 C12          7.4508     3.3722     1.1969 C.ar         1    LIG   0.0000
  13 C13          8.5478     3.4576     0.3516 C.ar         1    LIG   0.0000
  14 C14          8.3275     3.7829    -0.9826 C.ar         1    LIG   0.0000
  15 C15          7.0334     4.0192    -1.4352 C.ar         1    LIG   0.0000
  16 C16          5.9439     3.9251    -0.5757 C.ar         1    LIG   0.0000
  17 C17          6.1469     3.5775     0.7616 C.ar         1    LIG   0.0000
  18 H           -1.1339     3.2629    -0.2411 H            1    LIG   0.0000
  19 H           -0.0590     2.3439    -1.0576 H            1    LIG   0.0000
  20 H           -1.2837     1.6368    -0.2411 H            1    LIG   0.0000
  21 H            0.8898     3.0764     1.0000 H            1    LIG   0.0000
  22 H           -0.3349     2.3693     1.8165 H            1    LIG   0.0000
  23 H            0.5000     0.1340     1.0000 H            1    LIG   0.0000
  24 H            2.8000     0.1340     1.0000 H            1    LIG   0.0000
  25 H            2.5196     3.0133     1.4714 H            1    LIG   0.0000
  26 H            3.2267     2.6050     0.0572 H            1    LIG   0.0000
  27 H            4.2215     1.8459     2.6593 H            1    LIG   0.0000
  28 H            4.9286     1.4377     1.2451 H            1    LIG   0.0000
  29 H            4.0695     4.0016     3.3554 H            1    LIG   0.0000
  30 H            4.3098     5.1939     2.2658 H            1    LIG   0.0000
  31 H            6.6087     5.3040     2.8666 H            1    LIG   0.0000
  32 H            5.7082     5.4871     4.2164 H            1    LIG   0.0000
  33 H            7.0316     3.7996     4.9271 H            1    LIG   0.0000
  34 H            5.8614     2.9082     4.2183 H            1    LIG   0.0000
  35 H            9.4727     3.2896     0.6928 H            1    LIG   0.0000
  36 H            9.0987     3.8469    -1.6160 H            1    LIG   0.0000
  37 H            6.8840     4.2607    -2.3940 H            1    LIG   0.0000
  38 H            5.0201     4.1053    -0.9136 H            1    LIG   0.0000
@<TRIPOS>BOND
   1        1        2 1
   2        2        3 1
   3        3        4 2
   4        4        5 1
   5        5        6 1
   6        6        7 1
   7        7        8 1
   8        8        9 1
   9        9       10 1
  10       10       11 1
  11       11       12 1
  12       12       13 ar
  13       13       14 ar
  14       14       15 ar
  15       15       16 ar
  16       16       17 ar
  17       17       12 ar
  18       17        7 1
  19        1       18 1
  20        1       19 1
  21        1       20 1
  22        2       21 1
  23        2       22 1
  24        3       23 1
  25        4       24 1
  26        5       25 1
  27        5       26 1
  28        6       27 1
  29        6       28 1
  30        8       29 1
  31        8       30 1
  32        9       31 1
  33        9       32 1
  34       10       33 1
  35       10       34 1
  36       13       35 1
  37       14       36 1
  38       15       37 1
  39       16       38 1

@<TRIPOS>MOLECULE

  38   39
SMALL
USER_CHARGES
@<TRIPOS>ATOM
   1 C1          -0.6339     2.3969    -0.2411 C.3          1    LIG   0.0000
   2 C2           0.2400     2.3164     1.0000 C.3          1    LIG   0.0000
   3 C3           1.0000     1.0000     1.0000 C.2          1    LIG   0.0000
   4 C4           2.3000     1.0000     1.0000 C.2          1    LIG   0.0000
   5 C5           3.0600     2.3164     1.0000 C.3          1    LIG   0.0000
   6 C6           4.3881     2.1346     1.7165 C.3          1    LIG   0.0000
   7 N7           5.1243     3.4096     1.7165 N.pl3        1    LIG   0.0000
   8 C8           5.8454     3.7618     0.4846 C.3          1    LIG   0.0000
   9 C9           5.4344     5.1604     0.0568 C.3          1    LIG   0.0000
  10 C10          3.9245     5.1223    -0.0904 C.3          1    LIG   0.0000
  11 S11          3.2192     5.6066     1.5040 S.3          1    LIG   0.0000
  12 C12          4.1887     5.2556     2.9003 C.ar         1    LIG   0.0000
  13 C13          4.0119     6.0764     4.0050 C.ar         1    LIG   0.0000
  14 C14          4.7805     5.8308     5.1378 C.ar         1    LIG   0.0000
  15 C15          5.7016     4.7881     5.1394 C.ar         1    LIG   0.0000
  16 C16          5.8634     3.9715     4.0252 C.ar         1    LIG   0.0000
  17 C17          5.0831     4.1917     2.8881 C.ar         1    LIG   0.0000
  18 H           -1.1339     3.2629    -0.2411 H            1    LIG   0.0000
  19 H           -0.0590     2.3439    -1.0576 H            1    LIG   0.0000
  20 H           -1.2837     1.6368    -0.2411 H            1    LIG   0.0000
  21 H            0.8898     3.0764     1.0000 H            1    LIG   0.0000
  22 H           -0.3349     2.3693     1.8165 H            1    LIG   0.0000
  23 H            0.5000     0.1340     1.0000 H            1    LIG   0.0000
  24 H            2.8000     0.1340     1.0000 H            1    LIG   0.0000
  25 H            2.5196     3.0133     1.4714 H            1    LIG   0.0000
  26 H            3.2267     2.6050     0.0572 H            1    LIG   0.0000
  27 H            4.2215     1.8459     2.6593 H            1    LIG   0.0000
  28 H            4.9286     1.4377     1.2451 H            1    LIG   0.0000
  29 H            5.6157     3.1089    -0.2371 H            1    LIG   0.0000
  30 H            6.8306     3.7385     0.6541 H            1    LIG   0.0000
  31 H            5.6996     5.8289     0.7516 H            1    LIG   0.0000
  32 H            5.8632     5.3977    -0.8149 H            1    LIG   0.0000
  33 H            3.6335     5.7616    -0.8021 H            1    LIG   0.0000
  34 H            3.6268     4.1983    -0.3302 H            1    LIG   0.0000
  35 H            3.3491     6.8250     3.9871 H            1    LIG   0.0000
  36 H            4.6711     6.4031     5.9505 H            1    LIG   0.0000
  37 H            6.2564     4.6231     5.9549 H            1    LIG   0.0000
  38 H            6.5349     3.2307     4.0383 H            1    LIG   0.0000
@<TRIPOS>BOND
   1        1        2 1
   2        2        3 1
   3        3        4 2
   4        4        5 1
   5        5        6 1
   6        6        7 1
   7        7        8 1
   8        8        9 1
   9        9       10 1
  10       10       11 1
  11       11       12 1
  12       12       13 ar
  13       13       14 ar
  14       14       15 ar
  15       15       16 ar
  16       16       17 ar
  17       17       12 ar
  18       17        7 1
  19        1       18 1
  20        1       19 1
  21        1       20 1
  22        2       21 1
  23        2       22 1
  24        3       23 1
  25        4       24 1
  26        5       25 1
  27        5       26 1
  28        6       27 1
  29        6       28 1
  30        8       29 1
  31        8       30 1
  32        9       31 1
  33        9       32 1
  34       10       33 1
  35       10       34 1
  36       13       35 1
  37       14       36 1
  38       15       37 1
  39       16       38 1

@<TRIPOS>MOLECULE

  38   39
SMALL
USER_CHARGES
@<TRIPOS>ATOM
   1 C1          -0.6339     2.3969    -0.2411 C.3          1    LIG   0.0000
   2 C2           0.2400     2.3164     1.0000 C.3          1    LIG   0.0000
   3 C3           1.0000     1.0000     1.0000 C.2          1    LIG   0.0000
   4 C4           2.3000     1.0000     1.0000 C.2          1    LIG   0.0000
   5 C5           3.0600     2.3164     1.0000 C.3          1    LIG   0.0000
   6 C6           4.3881     2.1346     1.7165 C.3          1    LIG   0.0000
   7 N7           5.1243     3.4096     1.7165 N.pl3        1    LIG   0.0000
   8 C8           6.3268     3.4839     2.5592 C.3          1    LIG   0.0000
   9 C9           7.4903     3.9734     1.7140 C.3          1    LIG   0.0000
  10 C10          7.5978     3.0016     0.5535 C.3          1    LIG   0.0000
  11 S11          6.5863     3.6626    -0.7934 S.3          1    LIG   0.0000
  12 C12          5.2397     4.6488    -0.3170 C.ar         1    LIG   0.0000
  13 C13          4.8189     5.6105    -1.2244 C.ar         1    LIG   0.0000
  14 C14          3.7492     6.4262    -0.8709 C.ar         1    LIG   0.0000
  15 C15          3.1360     6.2694     0.3680 C.ar         1    LIG   0.0000
  16 C16          3.5672     5.2973     1.2644 C.ar         1    LIG   0.0000
  17 C17          4.6256     4.4558     0.9149 C.ar         1    LIG   0.0000
  18 H           -1.1339     3.2629    -0.2411 H            1    LIG   0.0000
  19 H           -0.0590     2.3439    -1.0576 H            1    LIG   0.0000
  20 H           -1.2837     1.6368    -0.2411 H            1    LIG   0.0000
  21 H            0.8898     3.0764     1.0000 H            1    LIG   0.0000
  22 H           -0.3349     2.3693     1.8165 H            1    LIG   0.0000
  23 H            0.5000     0.1340     1.0000 H            1    LIG   0.0000
  24 H            2.8000     0.1340     1.0000 H            1    LIG   0.0000
  25 H            2.5196     3.0133     1.4714 H            1    LIG   0.0000
  26 H            3.2267     2.6050     0.0572 H            1    LIG   0.0000
  27 H            4.2215     1.8459     2.6593 H            1    LIG   0.0000
  28 H            4.9286     1.4377     1.2451 H            1    LIG   0.0000
  29 H            6.5362     2.5775     2.9259 H            1    LIG   0.0000
  30 H            6.1689     4.1206     3.3140 H            1    LIG   0.0000
  31 H            7.3116     4.8982     1.3781 H            1    LIG   0.0000
  32 H            8.3348     3.9707     2.2496 H            1    LIG   0.0000
  33 H            8.5504     2.9228     0.2597 H            1    LIG   0.0000
  34 H            7.2580     2.1019     0.8274 H            1    LIG   0.0000
  35 H            5.2728     5.7144    -2.1093 H            1    LIG   0.0000
  36 H            3.4212     7.1248    -1.5068 H            1    LIG   0.0000
  37 H            2.3729     6.8652     0.6181 H            1    LIG   0.0000
  38 H            3.1217     5.2013     2.1545 H            1    LIG   0.0000
@<TRIPOS>BOND
   1        1        2 1
   2        2        3 1
   3        3        4 2
   4        4        5 1
   5        5        6 1
   6        6        7 1
   7        7        8 1
   8        8        9 1
   9        9       10 1
  10       10       11 1
  11       11       12 1
  12       12       13 ar
  13       13       14 ar
  14       14       15 ar
  15       15       16 ar
  16       16       17 ar
  17       17       12 ar
  18       17        7 1
  19        1       18 1
  20        1       19 1
  21        1       20 1
  22        2       21 1
  23        2       22 1
  24        3       23 1
  25        4       24 1
  26        5       25 1
  27        5       26 1
  28        6       27 1
  29        6       28 1
  30        8       29 1
  31        8       30 1
  32        9       31 1
  33        9       32 1
  34       10       33 1
  35       10       34 1
  36       13       35 1
  37       14       36 1
  38       15       37 1
  39       16       38 1

@<TRIPOS>MOLECULE

  38   39
SMALL
USER_CHARGES
@<TRIPOS>ATOM
   1 C1          -0.6339     2.3969    -0.2411 C.3          1    LIG   0.0000
   2 C2           0.2400     2.3164     1.0000 C.3          1    LIG   0.0000
   3 C3           1.0000     1.0000     1.0000 C.2          1    LIG   0.0000
   4 C4           2.3000     1.0000     1.0000 C.2          1    LIG   0.0000
   5 C5           3.0600     2.3164     1.0000 C.3          1    LIG   0.0000
   6 C6           4.5544     2.0386     1.0000 C.3          1    LIG   0.0000
   7 N7           5.2905     3.3136     1.0000 N.pl3        1    LIG   0.0000
   8 C8           6.7414     3.2445     0.7724 C.3          1    LIG   0.0000
   9 C9           7.1083     4.1940    -0.3553 C.3          1    LIG   0.0000
  10 C10          6.2667     3.7701    -1.5449 C.3          1    LIG   0.0000
  11 S11          4.7349     4.7315    -1.4864 S.3          1    LIG   0.0000
  12 C12          4.2176     5.2389     0.0909 C.ar         1    LIG   0.0000
  13 C13          3.4563     6.3971     0.1552 C.ar         1    LIG   0.0000
  14 C14          3.0339     6.8392     1.4044 C.ar         1    LIG   0.0000
  15 C15          3.3827     6.1270     2.5475 C.ar         1    LIG   0.0000
  16 C16          4.1427     4.9650     2.4654 C.ar         1    LIG   0.0000
  17 C17          4.5555     4.4963     1.2162 C.ar         1    LIG   0.0000
  18 H           -1.1339     3.2629    -0.2411 H            1    LIG   0.0000
  19 H           -0.0590     2.3439    -1.0576 H            1    LIG   0.0000
  20 H           -1.2837     1.6368    -0.2411 H            1    LIG   0.0000
  21 H            0.8898     3.0764     1.0000 H            1    LIG   0.0000
  22 H           -0.3349     2.3693     1.8165 H            1    LIG   0.0000
  23 H            0.5000     0.1340     1.0000 H            1    LIG   0.0000
  24 H            2.8000     0.1340     1.0000 H            1    LIG   0.0000
  25 H            2.8184     2.8407     1.8165 H            1    LIG   0.0000
  26 H            2.8184     2.8407     0.1835 H            1    LIG   0.0000
  27 H            4.7960     1.5142     1.8165 H            1    LIG   0.0000
  28 H            4.7960     1.5142     0.1835 H            1    LIG   0.0000
  29 H            6.9978     2.3109     0.5220 H            1    LIG   0.0000
  30 H            7.2251     3.5108     1.6061 H            1    LIG   0.0000
  31 H            6.8976     5.1372    -0.0985 H            1    LIG   0.0000
  32 H            8.0814     4.1170    -0.5724 H            1    LIG   0.0000
  33 H            6.7570     3.9582    -2.3959 H            1    LIG   0.0000
  34 H            6.0605     2.7932    -1.4879 H            1    LIG   0.0000
  35 H            3.2176     6.9009    -0.6750 H            1    LIG   0.0000
  36 H            2.4800     7.6682     1.4809 H            1    LIG   0.0000
  37 H            3.0821     6.4558     3.4428 H            1    LIG   0.0000
  38 H            4.3922     4.4678     3.2963 H            1    LIG   0.0000
@<TRIPOS>BOND
   1        1        2 1
   2        2        3 1
   3        3        4 2
   4        4        5 1
   5        5        6 1
   6        6        7 1
   7        7        8 1
   8        8        9 1
   9        9       10 1
  10       10       11 1
  11       11       12 1
  12       12       13 ar
  13       13       14 ar
  14       14       15 ar
  15       15       16 ar
  16       16       17 ar
  17       17       12 ar
  18       17        7 1
  19        1       18 1
  20        1       19 1
  21        1       20 1
  22        2       21 1
  23        2       22 1
  24        3       23 1
  25        4       24 1
  26        5       25 1
  27        5       26 1
  28        6       27 1
  29        6       28 1
  30        8       29 1
  31        8       30 1
  32        9       31 1
  33        9       32 1
  34       10       33 1
  35       10       34 1
  36       13       35 1
  37       14       36 1
  38       15       37 1
  39       16       38 1

