@<TRIPOS>MOLECULE
*****
 38 39 0 0 0
SMALL
USER_CHARGES

@<TRIPOS>ATOM
      1 C1         -0.6339    2.3969   -0.2411 C.3     1  LIG1        0.0000
      2 C2          0.2400    2.3164    1.0000 C.3     1  LIG1        0.0000
      3 C3          1.0000    1.0000    1.0000 C.2     1  LIG1        0.0000
      4 C4          2.3000    1.0000    1.0000 C.2     1  LIG1        0.0000
      5 C5          3.0600    2.3164    1.0000 C.3     1  LIG1        0.0000
      6 C6          4.5544    2.0386    1.0000 C.3     1  LIG1        0.0000
      7 N7          5.2905    3.3136    1.0000 N.pl3   1  LIG1        0.0000
      8 C8          6.7414    3.2445    0.7724 C.3     1  LIG1        0.0000
      9 C9          7.1083    4.1940   -0.3553 C.3     1  LIG1        0.0000
     10 C10         6.2667    3.7701   -1.5449 C.3     1  LIG1        0.0000
     11 S11         4.7349    4.7315   -1.4864 S.3     1  LIG1        0.0000
     12 C12         4.2176    5.2389    0.0909 C.ar    1  LIG1        0.0000
     13 C13         3.4563    6.3971    0.1552 C.ar    1  LIG1        0.0000
     14 C14         3.0339    6.8392    1.4044 C.ar    1  LIG1        0.0000
     15 C15         3.3827    6.1270    2.5475 C.ar    1  LIG1        0.0000
     16 C16         4.1427    4.9650    2.4654 C.ar    1  LIG1        0.0000
     17 C17         4.5555    4.4963    1.2162 C.ar    1  LIG1        0.0000
     18 H          -1.1339    3.2629   -0.2411 H       1  LIG1        0.0000
     19 H          -0.0590    2.3439   -1.0576 H       1  LIG1        0.0000
     20 H          -1.2837    1.6368   -0.2411 H       1  LIG1        0.0000
     21 H           0.8898    3.0764    1.0000 H       1  LIG1        0.0000
     22 H          -0.3349    2.3693    1.8165 H       1  LIG1        0.0000
     23 H           0.5000    0.1340    1.0000 H       1  LIG1        0.0000
     24 H           2.8000    0.1340    1.0000 H       1  LIG1        0.0000
     25 H           2.8184    2.8407    1.8165 H       1  LIG1        0.0000
     26 H           2.8184    2.8407    0.1835 H       1  LIG1        0.0000
     27 H           4.7960    1.5142    1.8165 H       1  LIG1        0.0000
     28 H           4.7960    1.5142    0.1835 H       1  LIG1        0.0000
     29 H           6.9978    2.3109    0.5220 H       1  LIG1        0.0000
     30 H           7.2251    3.5108    1.6061 H       1  LIG1        0.0000
     31 H           6.8976    5.1372   -0.0985 H       1  LIG1        0.0000
     32 H           8.0814    4.1170   -0.5724 H       1  LIG1        0.0000
     33 H           6.7570    3.9582   -2.3959 H       1  LIG1        0.0000
     34 H           6.0605    2.7932   -1.4879 H       1  LIG1        0.0000
     35 H           3.2176    6.9009   -0.6750 H       1  LIG1        0.0000
     36 H           2.4800    7.6682    1.4809 H       1  LIG1        0.0000
     37 H           3.0821    6.4558    3.4428 H       1  LIG1        0.0000
     38 H           4.3922    4.4678    3.2963 H       1  LIG1        0.0000
@<TRIPOS>BOND
     1     1     2    1
     2     2     3    1
     3     3     4    2
     4     4     5    1
     5     5     6    1
     6     6     7    1
     7     7     8    1
     8     8     9    1
     9     9    10    1
    10    10    11    1
    11    11    12    1
    12    12    13   ar
    13    13    14   ar
    14    14    15   ar
    15    15    16   ar
    16    16    17   ar
    17    17    12   ar
    18    17     7    1
    19     1    18    1
    20     1    19    1
    21     1    20    1
    22     2    21    1
    23     2    22    1
    24     3    23    1
    25     4    24    1
    26     5    25    1
    27     5    26    1
    28     6    27    1
    29     6    28    1
    30     8    29    1
    31     8    30    1
    32     9    31    1
    33     9    32    1
    34    10    33    1
    35    10    34    1
    36    13    35    1
    37    14    36    1
    38    15    37    1
    39    16    38    1
