@<TRIPOS>MOLECULE
*****
 38 39 0 0 0
SMALL
USER_CHARGES

@<TRIPOS>ATOM
      1 C1         -0.6339    2.3969   -0.2411 C.3     1  LIG1        0.0000
      2 C2          0.2400    2.3164    1.0000 C.3     1  LIG1        0.0000
      3 C3          1.0000    1.0000    1.0000 C.2     1  LIG1        0.0000
      4 C4          2.3000    1.0000    1.0000 C.2     1  LIG1        0.0000
      5 C5          3.0600    2.3164    1.0000 C.3     1  LIG1        0.0000
      6 C6          4.3881    2.1346    1.7165 C.3     1  LIG1        0.0000
      7 N7          5.1239    3.4091    1.7165 N.pl3   1  LIG1        0.0000
      8 C8          4.7238    4.4124    2.7274 C.3     1  LIG1        0.0000
      9 C9          3.6103    5.3725    2.3124 C.3     1  LIG1        0.0000
     10 C10         3.6563    5.8388    0.8594 C.3     1  LIG1        0.0000
     11 S11         5.3792    6.1959    0.4351 S.3     1  LIG1        0.0000
     12 C12         6.3975    4.8210    0.1232 C.ar    1  LIG1        0.0000
     13 C13         7.4361    5.0006   -0.7873 C.ar    1  LIG1        0.0000
     14 C14         8.2681    3.9209   -1.0635 C.ar    1  LIG1        0.0000
     15 C15         8.0622    2.6953   -0.4410 C.ar    1  LIG1        0.0000
     16 C16         7.0195    2.5550    0.4689 C.ar    1  LIG1        0.0000
     17 C17         6.1609    3.6080    0.7793 C.ar    1  LIG1        0.0000
     18 H          -1.1339    3.2629   -0.2411 H       1  LIG1        0.0000
     19 H          -0.0590    2.3439   -1.0576 H       1  LIG1        0.0000
     20 H          -1.2837    1.6368   -0.2411 H       1  LIG1        0.0000
     21 H           0.8898    3.0764    1.0000 H       1  LIG1        0.0000
     22 H          -0.3349    2.3693    1.8165 H       1  LIG1        0.0000
     23 H           0.5000    0.1340    1.0000 H       1  LIG1        0.0000
     24 H           2.8000    0.1340    1.0000 H       1  LIG1        0.0000
     25 H           2.5196    3.0133    1.4714 H       1  LIG1        0.0000
     26 H           3.2267    2.6050    0.0572 H       1  LIG1        0.0000
     27 H           4.2215    1.8459    2.6593 H       1  LIG1        0.0000
     28 H           4.9286    1.4377    1.2451 H       1  LIG1        0.0000
     29 H           5.5307    4.9586    2.9526 H       1  LIG1        0.0000
     30 H           4.4162    3.9206    3.5419 H       1  LIG1        0.0000
     31 H           2.7349    4.9127    2.4614 H       1  LIG1        0.0000
     32 H           3.6659    6.1812    2.8980 H       1  LIG1        0.0000
     33 H           3.3024    5.1195    0.2616 H       1  LIG1        0.0000
     34 H           3.1027    6.6646    0.7511 H       1  LIG1        0.0000
     35 H           7.5801    5.8848   -1.2318 H       1  LIG1        0.0000
     36 H           9.0198    4.0271   -1.7144 H       1  LIG1        0.0000
     37 H           8.6595    1.9198   -0.6459 H       1  LIG1        0.0000
     38 H           6.8814    1.6704    0.9144 H       1  LIG1        0.0000
@<TRIPOS>BOND
     1     1     2    1
     2     2     3    1
     3     3     4    2
     4     4     5    1
     5     5     6    1
     6     6     7    1
     7     7     8    1
     8     8     9    1
     9     9    10    1
    10    10    11    1
    11    11    12    1
    12    12    13   ar
    13    13    14   ar
    14    14    15   ar
    15    15    16   ar
    16    16    17   ar
    17    17    12   ar
    18    17     7    1
    19     1    18    1
    20     1    19    1
    21     1    20    1
    22     2    21    1
    23     2    22    1
    24     3    23    1
    25     4    24    1
    26     5    25    1
    27     5    26    1
    28     6    27    1
    29     6    28    1
    30     8    29    1
    31     8    30    1
    32     9    31    1
    33     9    32    1
    34    10    33    1
    35    10    34    1
    36    13    35    1
    37    14    36    1
    38    15    37    1
    39    16    38    1
