@<TRIPOS>MOLECULE
*****
 38 39 0 0 0
SMALL
USER_CHARGES

@<TRIPOS>ATOM
      1 C1         -0.6339    2.3969   -0.2411 C.3     1  LIG1        0.0000
      2 C2          0.2400    2.3164    1.0000 C.3     1  LIG1        0.0000
      3 C3          1.0000    1.0000    1.0000 C.2     1  LIG1        0.0000
      4 C4          2.3000    1.0000    1.0000 C.2     1  LIG1        0.0000
      5 C5          3.0600    2.3164    1.0000 C.3     1  LIG1        0.0000
      6 C6          4.3881    2.1346    1.7165 C.3     1  LIG1        0.0000
      7 N7          5.1234    3.4082    1.7165 N.pl3   1  LIG1        0.0000
      8 C8          4.7297    4.4175    2.7243 C.3     1  LIG1        0.0000
      9 C9          5.4445    4.3435    4.0729 C.3     1  LIG1        0.0000
     10 C10         6.9164    3.9368    4.0322 C.3     1  LIG1        0.0000
     11 S11         7.7249    4.8677    2.7095 S.3     1  LIG1        0.0000
     12 C12         7.3470    4.3250    1.1029 C.ar    1  LIG1        0.0000
     13 C13         8.3349    4.5910    0.1640 C.ar    1  LIG1        0.0000
     14 C14         8.0788    4.1756   -1.1363 C.ar    1  LIG1        0.0000
     15 C15         6.8983    3.5247   -1.4685 C.ar    1  LIG1        0.0000
     16 C16         5.9169    3.2695   -0.5219 C.ar    1  LIG1        0.0000
     17 C17         6.1452    3.6770    0.7865 C.ar    1  LIG1        0.0000
     18 H          -1.1339    3.2629   -0.2411 H       1  LIG1        0.0000
     19 H          -0.0590    2.3439   -1.0576 H       1  LIG1        0.0000
     20 H          -1.2837    1.6368   -0.2411 H       1  LIG1        0.0000
     21 H           0.8898    3.0764    1.0000 H       1  LIG1        0.0000
     22 H          -0.3349    2.3693    1.8165 H       1  LIG1        0.0000
     23 H           0.5000    0.1340    1.0000 H       1  LIG1        0.0000
     24 H           2.8000    0.1340    1.0000 H       1  LIG1        0.0000
     25 H           2.5196    3.0133    1.4714 H       1  LIG1        0.0000
     26 H           3.2267    2.6050    0.0572 H       1  LIG1        0.0000
     27 H           4.2215    1.8459    2.6593 H       1  LIG1        0.0000
     28 H           4.9286    1.4377    1.2451 H       1  LIG1        0.0000
     29 H           3.7496    4.3132    2.8930 H       1  LIG1        0.0000
     30 H           4.9066    5.3216    2.3352 H       1  LIG1        0.0000
     31 H           5.3888    5.2468    4.4982 H       1  LIG1        0.0000
     32 H           4.9592    3.6777    4.6398 H       1  LIG1        0.0000
     33 H           7.3501    4.1477    4.9082 H       1  LIG1        0.0000
     34 H           6.9916    2.9563    3.8506 H       1  LIG1        0.0000
     35 H           9.1849    5.0566    0.4108 H       1  LIG1        0.0000
     36 H           8.7591    4.3491   -1.8484 H       1  LIG1        0.0000
     37 H           6.7519    3.2326   -2.4136 H       1  LIG1        0.0000
     38 H           5.0682    2.8048   -0.7745 H       1  LIG1        0.0000
@<TRIPOS>BOND
     1     1     2    1
     2     2     3    1
     3     3     4    2
     4     4     5    1
     5     5     6    1
     6     6     7    1
     7     7     8    1
     8     8     9    1
     9     9    10    1
    10    10    11    1
    11    11    12    1
    12    12    13   ar
    13    13    14   ar
    14    14    15   ar
    15    15    16   ar
    16    16    17   ar
    17    17    12   ar
    18    17     7    1
    19     1    18    1
    20     1    19    1
    21     1    20    1
    22     2    21    1
    23     2    22    1
    24     3    23    1
    25     4    24    1
    26     5    25    1
    27     5    26    1
    28     6    27    1
    29     6    28    1
    30     8    29    1
    31     8    30    1
    32     9    31    1
    33     9    32    1
    34    10    33    1
    35    10    34    1
    36    13    35    1
    37    14    36    1
    38    15    37    1
    39    16    38    1
