@<TRIPOS>MOLECULE
*****
 38 39 0 0 0
SMALL
USER_CHARGES

@<TRIPOS>ATOM
      1 C1         -1.2544    2.0386    1.0000 C.3     1  LIG1        0.0000
      2 C2          0.2400    2.3164    1.0000 C.3     1  LIG1        0.0000
      3 C3          1.0000    1.0000    1.0000 C.2     1  LIG1        0.0000
      4 C4          2.3000    1.0000    1.0000 C.2     1  LIG1        0.0000
      5 C5          3.0600    2.3164    1.0000 C.3     1  LIG1        0.0000
      6 C6          3.9339    2.3969    2.2411 C.3     1  LIG1        0.0000
      7 N7          4.6700    3.6719    2.2411 N.pl3   1  LIG1        0.0000
      8 C8          5.8725    3.7462    1.3984 C.3     1  LIG1        0.0000
      9 C9          5.7693    4.9670    0.5003 C.3     1  LIG1        0.0000
     10 C10         4.4726    4.8059   -0.2714 C.3     1  LIG1        0.0000
     11 S11         3.1758    5.6317    0.6829 S.3     1  LIG1        0.0000
     12 C12         3.4229    5.6977    2.3997 C.ar    1  LIG1        0.0000
     13 C13         2.8332    6.7569    3.0746 C.ar    1  LIG1        0.0000
     14 C14         3.0198    6.8473    4.4499 C.ar    1  LIG1        0.0000
     15 C15         3.7872    5.8934    5.1107 C.ar    1  LIG1        0.0000
     16 C16         4.3678    4.8350    4.4200 C.ar    1  LIG1        0.0000
     17 C17         4.1710    4.7183    3.0423 C.ar    1  LIG1        0.0000
     18 H          -1.7544    2.9046    1.0000 H       1  LIG1        0.0000
     19 H          -1.4960    1.5142    0.1835 H       1  LIG1        0.0000
     20 H          -1.4960    1.5142    1.8165 H       1  LIG1        0.0000
     21 H           0.4816    2.8407    0.1835 H       1  LIG1        0.0000
     22 H           0.4816    2.8407    1.8165 H       1  LIG1        0.0000
     23 H           0.5000    0.1340    1.0000 H       1  LIG1        0.0000
     24 H           2.8000    0.1340    1.0000 H       1  LIG1        0.0000
     25 H           2.4102    3.0764    1.0000 H       1  LIG1        0.0000
     26 H           3.6349    2.3693    0.1835 H       1  LIG1        0.0000
     27 H           3.3590    2.3439    3.0576 H       1  LIG1        0.0000
     28 H           4.5837    1.6368    2.2411 H       1  LIG1        0.0000
     29 H           5.9406    2.9214    0.8371 H       1  LIG1        0.0000
     30 H           6.6841    3.8232    1.9776 H       1  LIG1        0.0000
     31 H           5.7457    5.8023    1.0497 H       1  LIG1        0.0000
     32 H           6.5461    5.0034   -0.1283 H       1  LIG1        0.0000
     33 H           4.5561    5.2289   -1.1737 H       1  LIG1        0.0000
     34 H           4.2551    3.8356   -0.3770 H       1  LIG1        0.0000
     35 H           2.2882    7.4375    2.5849 H       1  LIG1        0.0000
     36 H           2.6027    7.5973    4.9632 H       1  LIG1        0.0000
     37 H           3.9235    5.9700    6.0984 H       1  LIG1        0.0000
     38 H           4.9232    4.1612    4.9073 H       1  LIG1        0.0000
@<TRIPOS>BOND
     1     1     2    1
     2     2     3    1
     3     3     4    2
     4     4     5    1
     5     5     6    1
     6     6     7    1
     7     7     8    1
     8     8     9    1
     9     9    10    1
    10    10    11    1
    11    11    12    1
    12    12    13   ar
    13    13    14   ar
    14    14    15   ar
    15    15    16   ar
    16    16    17   ar
    17    17    12   ar
    18    17     7    1
    19     1    18    1
    20     1    19    1
    21     1    20    1
    22     2    21    1
    23     2    22    1
    24     3    23    1
    25     4    24    1
    26     5    25    1
    27     5    26    1
    28     6    27    1
    29     6    28    1
    30     8    29    1
    31     8    30    1
    32     9    31    1
    33     9    32    1
    34    10    33    1
    35    10    34    1
    36    13    35    1
    37    14    36    1
    38    15    37    1
    39    16    38    1
