@<TRIPOS>MOLECULE
*****
 38 39 0 0 0
SMALL
USER_CHARGES

@<TRIPOS>ATOM
      1 C1         -0.6339    2.3969   -0.2411 C.3     1  LIG1        0.0000
      2 C2          0.2400    2.3164    1.0000 C.3     1  LIG1        0.0000
      3 C3          1.0000    1.0000    1.0000 C.2     1  LIG1        0.0000
      4 C4          2.3000    1.0000    1.0000 C.2     1  LIG1        0.0000
      5 C5          3.0600    2.3164    1.0000 C.3     1  LIG1        0.0000
      6 C6          4.3881    2.1346    1.7165 C.3     1  LIG1        0.0000
      7 N7          5.1234    3.4082    1.7165 N.pl3   1  LIG1        0.0000
      8 C8          5.8517    3.7697    0.4803 C.3     1  LIG1        0.0000
      9 C9          5.0650    4.5626   -0.5626 C.3     1  LIG1        0.0000
     10 C10         4.0661    5.5824   -0.0188 C.3     1  LIG1        0.0000
     11 S11         4.8721    6.5148    1.3044 S.3     1  LIG1        0.0000
     12 C12         5.0641    5.6431    2.7950 C.ar    1  LIG1        0.0000
     13 C13         5.1163    6.4493    3.9244 C.ar    1  LIG1        0.0000
     14 C14         5.2690    5.7979    5.1415 C.ar    1  LIG1        0.0000
     15 C15         5.3576    4.4143    5.2153 C.ar    1  LIG1        0.0000
     16 C16         5.3091    3.6204    4.0787 C.ar    1  LIG1        0.0000
     17 C17         5.1600    4.2458    2.8471 C.ar    1  LIG1        0.0000
     18 H          -1.1339    3.2629   -0.2411 H       1  LIG1        0.0000
     19 H          -0.0590    2.3439   -1.0576 H       1  LIG1        0.0000
     20 H          -1.2837    1.6368   -0.2411 H       1  LIG1        0.0000
     21 H           0.8898    3.0764    1.0000 H       1  LIG1        0.0000
     22 H          -0.3349    2.3693    1.8165 H       1  LIG1        0.0000
     23 H           0.5000    0.1340    1.0000 H       1  LIG1        0.0000
     24 H           2.8000    0.1340    1.0000 H       1  LIG1        0.0000
     25 H           2.5196    3.0133    1.4714 H       1  LIG1        0.0000
     26 H           3.2267    2.6050    0.0572 H       1  LIG1        0.0000
     27 H           4.2215    1.8459    2.6593 H       1  LIG1        0.0000
     28 H           4.9286    1.4377    1.2451 H       1  LIG1        0.0000
     29 H           6.1599    2.9216    0.0493 H       1  LIG1        0.0000
     30 H           6.6459    4.3174    0.7438 H       1  LIG1        0.0000
     31 H           5.7231    5.0538   -1.1332 H       1  LIG1        0.0000
     32 H           4.5587    3.9090   -1.1251 H       1  LIG1        0.0000
     33 H           3.7866    6.2051   -0.7496 H       1  LIG1        0.0000
     34 H           3.2622    5.1095    0.3418 H       1  LIG1        0.0000
     35 H           5.0477    7.4452    3.8646 H       1  LIG1        0.0000
     36 H           5.3162    6.3368    5.9825 H       1  LIG1        0.0000
     37 H           5.4588    3.9792    6.1100 H       1  LIG1        0.0000
     38 H           5.3796    2.6251    4.1441 H       1  LIG1        0.0000
@<TRIPOS>BOND
     1     1     2    1
     2     2     3    1
     3     3     4    2
     4     4     5    1
     5     5     6    1
     6     6     7    1
     7     7     8    1
     8     8     9    1
     9     9    10    1
    10    10    11    1
    11    11    12    1
    12    12    13   ar
    13    13    14   ar
    14    14    15   ar
    15    15    16   ar
    16    16    17   ar
    17    17    12   ar
    18    17     7    1
    19     1    18    1
    20     1    19    1
    21     1    20    1
    22     2    21    1
    23     2    22    1
    24     3    23    1
    25     4    24    1
    26     5    25    1
    27     5    26    1
    28     6    27    1
    29     6    28    1
    30     8    29    1
    31     8    30    1
    32     9    31    1
    33     9    32    1
    34    10    33    1
    35    10    34    1
    36    13    35    1
    37    14    36    1
    38    15    37    1
    39    16    38    1
