@<TRIPOS>MOLECULE
*****
 38 39 0 0 0
SMALL
USER_CHARGES

@<TRIPOS>ATOM
      1 C1         -0.6339    2.3969   -0.2411 C.3     1  LIG1        0.0000
      2 C2          0.2400    2.3164    1.0000 C.3     1  LIG1        0.0000
      3 C3          1.0000    1.0000    1.0000 C.2     1  LIG1        0.0000
      4 C4          2.3000    1.0000    1.0000 C.2     1  LIG1        0.0000
      5 C5          3.0600    2.3164    1.0000 C.3     1  LIG1        0.0000
      6 C6          4.3881    2.1346    1.7165 C.3     1  LIG1        0.0000
      7 N7          5.1243    3.4096    1.7165 N.pl3   1  LIG1        0.0000
      8 C8          6.3268    3.4839    2.5592 C.3     1  LIG1        0.0000
      9 C9          7.4903    3.9734    1.7140 C.3     1  LIG1        0.0000
     10 C10         7.5978    3.0016    0.5535 C.3     1  LIG1        0.0000
     11 S11         6.5863    3.6626   -0.7934 S.3     1  LIG1        0.0000
     12 C12         5.2397    4.6488   -0.3170 C.ar    1  LIG1        0.0000
     13 C13         4.8189    5.6105   -1.2244 C.ar    1  LIG1        0.0000
     14 C14         3.7492    6.4262   -0.8709 C.ar    1  LIG1        0.0000
     15 C15         3.1360    6.2694    0.3680 C.ar    1  LIG1        0.0000
     16 C16         3.5672    5.2973    1.2644 C.ar    1  LIG1        0.0000
     17 C17         4.6256    4.4558    0.9149 C.ar    1  LIG1        0.0000
     18 H          -1.1339    3.2629   -0.2411 H       1  LIG1        0.0000
     19 H          -0.0590    2.3439   -1.0576 H       1  LIG1        0.0000
     20 H          -1.2837    1.6368   -0.2411 H       1  LIG1        0.0000
     21 H           0.8898    3.0764    1.0000 H       1  LIG1        0.0000
     22 H          -0.3349    2.3693    1.8165 H       1  LIG1        0.0000
     23 H           0.5000    0.1340    1.0000 H       1  LIG1        0.0000
     24 H           2.8000    0.1340    1.0000 H       1  LIG1        0.0000
     25 H           2.5196    3.0133    1.4714 H       1  LIG1        0.0000
     26 H           3.2267    2.6050    0.0572 H       1  LIG1        0.0000
     27 H           4.2215    1.8459    2.6593 H       1  LIG1        0.0000
     28 H           4.9286    1.4377    1.2451 H       1  LIG1        0.0000
     29 H           6.5362    2.5775    2.9259 H       1  LIG1        0.0000
     30 H           6.1689    4.1206    3.3140 H       1  LIG1        0.0000
     31 H           7.3116    4.8982    1.3781 H       1  LIG1        0.0000
     32 H           8.3348    3.9707    2.2496 H       1  LIG1        0.0000
     33 H           8.5504    2.9228    0.2597 H       1  LIG1        0.0000
     34 H           7.2580    2.1019    0.8274 H       1  LIG1        0.0000
     35 H           5.2728    5.7144   -2.1093 H       1  LIG1        0.0000
     36 H           3.4212    7.1248   -1.5068 H       1  LIG1        0.0000
     37 H           2.3729    6.8652    0.6181 H       1  LIG1        0.0000
     38 H           3.1217    5.2013    2.1545 H       1  LIG1        0.0000
@<TRIPOS>BOND
     1     1     2    1
     2     2     3    1
     3     3     4    2
     4     4     5    1
     5     5     6    1
     6     6     7    1
     7     7     8    1
     8     8     9    1
     9     9    10    1
    10    10    11    1
    11    11    12    1
    12    12    13   ar
    13    13    14   ar
    14    14    15   ar
    15    15    16   ar
    16    16    17   ar
    17    17    12   ar
    18    17     7    1
    19     1    18    1
    20     1    19    1
    21     1    20    1
    22     2    21    1
    23     2    22    1
    24     3    23    1
    25     4    24    1
    26     5    25    1
    27     5    26    1
    28     6    27    1
    29     6    28    1
    30     8    29    1
    31     8    30    1
    32     9    31    1
    33     9    32    1
    34    10    33    1
    35    10    34    1
    36    13    35    1
    37    14    36    1
    38    15    37    1
    39    16    38    1
