@<TRIPOS>MOLECULE
*****
 38 39 0 0 0
SMALL
USER_CHARGES

@<TRIPOS>ATOM
      1 C1         -1.2544    2.0386    1.0000 C.3     1  LIG1        0.0000
      2 C2          0.2400    2.3164    1.0000 C.3     1  LIG1        0.0000
      3 C3          1.0000    1.0000    1.0000 C.2     1  LIG1        0.0000
      4 C4          2.3000    1.0000    1.0000 C.2     1  LIG1        0.0000
      5 C5          3.0600    2.3164    1.0000 C.3     1  LIG1        0.0000
      6 C6          3.9339    2.3969    2.2411 C.3     1  LIG1        0.0000
      7 N7          4.6697    3.6713    2.2411 N.pl3   1  LIG1        0.0000
      8 C8          3.9303    4.8706    2.6924 C.3     1  LIG1        0.0000
      9 C9          3.1640    5.6302    1.6108 C.3     1  LIG1        0.0000
     10 C10         3.8616    5.7203    0.2558 C.3     1  LIG1        0.0000
     11 S11         5.6158    6.0593    0.5452 S.3     1  LIG1        0.0000
     12 C12         6.5871    4.7115    1.0597 C.ar    1  LIG1        0.0000
     13 C13         7.9260    4.7178    0.6760 C.ar    1  LIG1        0.0000
     14 C14         8.7314    3.6534    1.0670 C.ar    1  LIG1        0.0000
     15 C15         8.2055    2.6125    1.8233 C.ar    1  LIG1        0.0000
     16 C16         6.8654    2.6439    2.1949 C.ar    1  LIG1        0.0000
     17 C17         6.0198    3.6895    1.8287 C.ar    1  LIG1        0.0000
     18 H          -1.7544    2.9046    1.0000 H       1  LIG1        0.0000
     19 H          -1.4960    1.5142    0.1835 H       1  LIG1        0.0000
     20 H          -1.4960    1.5142    1.8165 H       1  LIG1        0.0000
     21 H           0.4816    2.8407    0.1835 H       1  LIG1        0.0000
     22 H           0.4816    2.8407    1.8165 H       1  LIG1        0.0000
     23 H           0.5000    0.1340    1.0000 H       1  LIG1        0.0000
     24 H           2.8000    0.1340    1.0000 H       1  LIG1        0.0000
     25 H           2.4102    3.0764    1.0000 H       1  LIG1        0.0000
     26 H           3.6349    2.3693    0.1835 H       1  LIG1        0.0000
     27 H           3.3590    2.3439    3.0576 H       1  LIG1        0.0000
     28 H           4.5837    1.6368    2.2411 H       1  LIG1        0.0000
     29 H           4.5902    5.5016    3.1003 H       1  LIG1        0.0000
     30 H           3.2723    4.5810    3.3875 H       1  LIG1        0.0000
     31 H           2.2853    5.1722    1.4757 H       1  LIG1        0.0000
     32 H           3.0074    6.5614    1.9398 H       1  LIG1        0.0000
     33 H           3.7604    4.8551   -0.2353 H       1  LIG1        0.0000
     34 H           3.4585    6.4592   -0.2841 H       1  LIG1        0.0000
     35 H           8.2993    5.4695    0.1324 H       1  LIG1        0.0000
     36 H           9.6956    3.6369    0.8022 H       1  LIG1        0.0000
     37 H           8.7865    1.8465    2.0984 H       1  LIG1        0.0000
     38 H           6.4971    1.8923    2.7421 H       1  LIG1        0.0000
@<TRIPOS>BOND
     1     1     2    1
     2     2     3    1
     3     3     4    2
     4     4     5    1
     5     5     6    1
     6     6     7    1
     7     7     8    1
     8     8     9    1
     9     9    10    1
    10    10    11    1
    11    11    12    1
    12    12    13   ar
    13    13    14   ar
    14    14    15   ar
    15    15    16   ar
    16    16    17   ar
    17    17    12   ar
    18    17     7    1
    19     1    18    1
    20     1    19    1
    21     1    20    1
    22     2    21    1
    23     2    22    1
    24     3    23    1
    25     4    24    1
    26     5    25    1
    27     5    26    1
    28     6    27    1
    29     6    28    1
    30     8    29    1
    31     8    30    1
    32     9    31    1
    33     9    32    1
    34    10    33    1
    35    10    34    1
    36    13    35    1
    37    14    36    1
    38    15    37    1
    39    16    38    1
