@<TRIPOS>MOLECULE
*****
 38 39 0 0 0
SMALL
USER_CHARGES

@<TRIPOS>ATOM
      1 C1         -1.2544    2.0386    1.0000 C.3     1  LIG1        0.0000
      2 C2          0.2400    2.3164    1.0000 C.3     1  LIG1        0.0000
      3 C3          1.0000    1.0000    1.0000 C.2     1  LIG1        0.0000
      4 C4          2.3000    1.0000    1.0000 C.2     1  LIG1        0.0000
      5 C5          3.0600    2.3164    1.0000 C.3     1  LIG1        0.0000
      6 C6          3.9339    2.3969    2.2411 C.3     1  LIG1        0.0000
      7 N7          4.6700    3.6719    2.2411 N.pl3   1  LIG1        0.0000
      8 C8          5.3911    4.0241    3.4730 C.3     1  LIG1        0.0000
      9 C9          6.8321    4.3534    3.1225 C.3     1  LIG1        0.0000
     10 C10         7.3749    3.1302    2.4069 C.3     1  LIG1        0.0000
     11 S11         7.0866    3.3738    0.6372 S.3     1  LIG1        0.0000
     12 C12         5.7263    4.3678    0.2202 C.ar    1  LIG1        0.0000
     13 C13         5.7964    5.0461   -0.9883 C.ar    1  LIG1        0.0000
     14 C14         4.7285    5.8608   -1.3493 C.ar    1  LIG1        0.0000
     15 C15         3.6314    5.9834   -0.5026 C.ar    1  LIG1        0.0000
     16 C16         3.5747    5.2929    0.7034 C.ar    1  LIG1        0.0000
     17 C17         4.6293    4.4537    1.0693 C.ar    1  LIG1        0.0000
     18 H          -1.7544    2.9046    1.0000 H       1  LIG1        0.0000
     19 H          -1.4960    1.5142    0.1835 H       1  LIG1        0.0000
     20 H          -1.4960    1.5142    1.8165 H       1  LIG1        0.0000
     21 H           0.4816    2.8407    0.1835 H       1  LIG1        0.0000
     22 H           0.4816    2.8407    1.8165 H       1  LIG1        0.0000
     23 H           0.5000    0.1340    1.0000 H       1  LIG1        0.0000
     24 H           2.8000    0.1340    1.0000 H       1  LIG1        0.0000
     25 H           2.4102    3.0764    1.0000 H       1  LIG1        0.0000
     26 H           3.6349    2.3693    0.1835 H       1  LIG1        0.0000
     27 H           3.3590    2.3439    3.0576 H       1  LIG1        0.0000
     28 H           4.5837    1.6368    2.2411 H       1  LIG1        0.0000
     29 H           5.3681    3.2519    4.1079 H       1  LIG1        0.0000
     30 H           4.9592    4.8190    3.8991 H       1  LIG1        0.0000
     31 H           6.8705    5.1529    2.5230 H       1  LIG1        0.0000
     32 H           7.3597    4.5337    3.9527 H       1  LIG1        0.0000
     33 H           8.3545    3.0359    2.5847 H       1  LIG1        0.0000
     34 H           6.8984    2.3094    2.7219 H       1  LIG1        0.0000
     35 H           6.5939    4.9516   -1.5841 H       1  LIG1        0.0000
     36 H           4.7493    6.3580   -2.2167 H       1  LIG1        0.0000
     37 H           2.8712    6.5775   -0.7655 H       1  LIG1        0.0000
     38 H           2.7829    5.3969    1.3053 H       1  LIG1        0.0000
@<TRIPOS>BOND
     1     1     2    1
     2     2     3    1
     3     3     4    2
     4     4     5    1
     5     5     6    1
     6     6     7    1
     7     7     8    1
     8     8     9    1
     9     9    10    1
    10    10    11    1
    11    11    12    1
    12    12    13   ar
    13    13    14   ar
    14    14    15   ar
    15    15    16   ar
    16    16    17   ar
    17    17    12   ar
    18    17     7    1
    19     1    18    1
    20     1    19    1
    21     1    20    1
    22     2    21    1
    23     2    22    1
    24     3    23    1
    25     4    24    1
    26     5    25    1
    27     5    26    1
    28     6    27    1
    29     6    28    1
    30     8    29    1
    31     8    30    1
    32     9    31    1
    33     9    32    1
    34    10    33    1
    35    10    34    1
    36    13    35    1
    37    14    36    1
    38    15    37    1
    39    16    38    1
