@<TRIPOS>MOLECULE
*****
 38 39 0 0 0
SMALL
USER_CHARGES

@<TRIPOS>ATOM
      1 C1         -0.6339    2.3969   -0.2411 C.3     1  LIG1        0.0000
      2 C2          0.2400    2.3164    1.0000 C.3     1  LIG1        0.0000
      3 C3          1.0000    1.0000    1.0000 C.2     1  LIG1        0.0000
      4 C4          2.3000    1.0000    1.0000 C.2     1  LIG1        0.0000
      5 C5          3.0600    2.3164    1.0000 C.3     1  LIG1        0.0000
      6 C6          4.3881    2.1346    1.7165 C.3     1  LIG1        0.0000
      7 N7          5.1243    3.4096    1.7165 N.pl3   1  LIG1        0.0000
      8 C8          5.8454    3.7618    0.4846 C.3     1  LIG1        0.0000
      9 C9          5.4344    5.1604    0.0568 C.3     1  LIG1        0.0000
     10 C10         3.9245    5.1223   -0.0904 C.3     1  LIG1        0.0000
     11 S11         3.2192    5.6066    1.5040 S.3     1  LIG1        0.0000
     12 C12         4.1887    5.2556    2.9003 C.ar    1  LIG1        0.0000
     13 C13         4.0119    6.0764    4.0050 C.ar    1  LIG1        0.0000
     14 C14         4.7805    5.8308    5.1378 C.ar    1  LIG1        0.0000
     15 C15         5.7016    4.7881    5.1394 C.ar    1  LIG1        0.0000
     16 C16         5.8634    3.9715    4.0252 C.ar    1  LIG1        0.0000
     17 C17         5.0831    4.1917    2.8881 C.ar    1  LIG1        0.0000
     18 H          -1.1339    3.2629   -0.2411 H       1  LIG1        0.0000
     19 H          -0.0590    2.3439   -1.0576 H       1  LIG1        0.0000
     20 H          -1.2837    1.6368   -0.2411 H       1  LIG1        0.0000
     21 H           0.8898    3.0764    1.0000 H       1  LIG1        0.0000
     22 H          -0.3349    2.3693    1.8165 H       1  LIG1        0.0000
     23 H           0.5000    0.1340    1.0000 H       1  LIG1        0.0000
     24 H           2.8000    0.1340    1.0000 H       1  LIG1        0.0000
     25 H           2.5196    3.0133    1.4714 H       1  LIG1        0.0000
     26 H           3.2267    2.6050    0.0572 H       1  LIG1        0.0000
     27 H           4.2215    1.8459    2.6593 H       1  LIG1        0.0000
     28 H           4.9286    1.4377    1.2451 H       1  LIG1        0.0000
     29 H           5.6157    3.1089   -0.2371 H       1  LIG1        0.0000
     30 H           6.8306    3.7385    0.6541 H       1  LIG1        0.0000
     31 H           5.6996    5.8289    0.7516 H       1  LIG1        0.0000
     32 H           5.8632    5.3977   -0.8149 H       1  LIG1        0.0000
     33 H           3.6335    5.7616   -0.8021 H       1  LIG1        0.0000
     34 H           3.6268    4.1983   -0.3302 H       1  LIG1        0.0000
     35 H           3.3491    6.8250    3.9871 H       1  LIG1        0.0000
     36 H           4.6711    6.4031    5.9505 H       1  LIG1        0.0000
     37 H           6.2564    4.6231    5.9549 H       1  LIG1        0.0000
     38 H           6.5349    3.2307    4.0383 H       1  LIG1        0.0000
@<TRIPOS>BOND
     1     1     2    1
     2     2     3    1
     3     3     4    2
     4     4     5    1
     5     5     6    1
     6     6     7    1
     7     7     8    1
     8     8     9    1
     9     9    10    1
    10    10    11    1
    11    11    12    1
    12    12    13   ar
    13    13    14   ar
    14    14    15   ar
    15    15    16   ar
    16    16    17   ar
    17    17    12   ar
    18    17     7    1
    19     1    18    1
    20     1    19    1
    21     1    20    1
    22     2    21    1
    23     2    22    1
    24     3    23    1
    25     4    24    1
    26     5    25    1
    27     5    26    1
    28     6    27    1
    29     6    28    1
    30     8    29    1
    31     8    30    1
    32     9    31    1
    33     9    32    1
    34    10    33    1
    35    10    34    1
    36    13    35    1
    37    14    36    1
    38    15    37    1
    39    16    38    1
