@<TRIPOS>MOLECULE
*****
 38 39 0 0 0
SMALL
USER_CHARGES

@<TRIPOS>ATOM
      1 C1         -0.6339    2.3969   -0.2411 C.3     1  LIG1        0.0000
      2 C2          0.2400    2.3164    1.0000 C.3     1  LIG1        0.0000
      3 C3          1.0000    1.0000    1.0000 C.2     1  LIG1        0.0000
      4 C4          2.3000    1.0000    1.0000 C.2     1  LIG1        0.0000
      5 C5          3.0600    2.3164    1.0000 C.3     1  LIG1        0.0000
      6 C6          4.3881    2.1346    1.7165 C.3     1  LIG1        0.0000
      7 N7          5.1243    3.4096    1.7165 N.pl3   1  LIG1        0.0000
      8 C8          4.7273    4.4074    2.7208 C.3     1  LIG1        0.0000
      9 C9          5.9621    4.8557    3.4837 C.3     1  LIG1        0.0000
     10 C10         6.5732    3.5931    4.0627 C.3     1  LIG1        0.0000
     11 S11         7.7730    2.9775    2.8562 S.3     1  LIG1        0.0000
     12 C12         7.4508    3.3722    1.1969 C.ar    1  LIG1        0.0000
     13 C13         8.5478    3.4576    0.3516 C.ar    1  LIG1        0.0000
     14 C14         8.3275    3.7829   -0.9826 C.ar    1  LIG1        0.0000
     15 C15         7.0334    4.0192   -1.4352 C.ar    1  LIG1        0.0000
     16 C16         5.9439    3.9251   -0.5757 C.ar    1  LIG1        0.0000
     17 C17         6.1469    3.5775    0.7616 C.ar    1  LIG1        0.0000
     18 H          -1.1339    3.2629   -0.2411 H       1  LIG1        0.0000
     19 H          -0.0590    2.3439   -1.0576 H       1  LIG1        0.0000
     20 H          -1.2837    1.6368   -0.2411 H       1  LIG1        0.0000
     21 H           0.8898    3.0764    1.0000 H       1  LIG1        0.0000
     22 H          -0.3349    2.3693    1.8165 H       1  LIG1        0.0000
     23 H           0.5000    0.1340    1.0000 H       1  LIG1        0.0000
     24 H           2.8000    0.1340    1.0000 H       1  LIG1        0.0000
     25 H           2.5196    3.0133    1.4714 H       1  LIG1        0.0000
     26 H           3.2267    2.6050    0.0572 H       1  LIG1        0.0000
     27 H           4.2215    1.8459    2.6593 H       1  LIG1        0.0000
     28 H           4.9286    1.4377    1.2451 H       1  LIG1        0.0000
     29 H           4.0695    4.0016    3.3554 H       1  LIG1        0.0000
     30 H           4.3098    5.1939    2.2658 H       1  LIG1        0.0000
     31 H           6.6087    5.3040    2.8666 H       1  LIG1        0.0000
     32 H           5.7082    5.4871    4.2164 H       1  LIG1        0.0000
     33 H           7.0316    3.7996    4.9271 H       1  LIG1        0.0000
     34 H           5.8614    2.9082    4.2183 H       1  LIG1        0.0000
     35 H           9.4727    3.2896    0.6928 H       1  LIG1        0.0000
     36 H           9.0987    3.8469   -1.6160 H       1  LIG1        0.0000
     37 H           6.8840    4.2607   -2.3940 H       1  LIG1        0.0000
     38 H           5.0201    4.1053   -0.9136 H       1  LIG1        0.0000
@<TRIPOS>BOND
     1     1     2    1
     2     2     3    1
     3     3     4    2
     4     4     5    1
     5     5     6    1
     6     6     7    1
     7     7     8    1
     8     8     9    1
     9     9    10    1
    10    10    11    1
    11    11    12    1
    12    12    13   ar
    13    13    14   ar
    14    14    15   ar
    15    15    16   ar
    16    16    17   ar
    17    17    12   ar
    18    17     7    1
    19     1    18    1
    20     1    19    1
    21     1    20    1
    22     2    21    1
    23     2    22    1
    24     3    23    1
    25     4    24    1
    26     5    25    1
    27     5    26    1
    28     6    27    1
    29     6    28    1
    30     8    29    1
    31     8    30    1
    32     9    31    1
    33     9    32    1
    34    10    33    1
    35    10    34    1
    36    13    35    1
    37    14    36    1
    38    15    37    1
    39    16    38    1
