@<TRIPOS>MOLECULE
*****
 44 46 0 0 0
SMALL
USER_CHARGES

@<TRIPOS>ATOM
      1 O1          5.5416    0.9525    1.0422 O.2     1  LIG1        0.0000
      2 C2          4.3267    0.9874    1.0014 C.2     1  LIG1        0.0000
      3 C3          3.2425    0.5314    1.8193 C.2     1  LIG1        0.0000
      4 O4          3.1905   -0.1356    2.9898 O.2     1  LIG1       -1.0000
      5 C5          2.3516    1.0000    1.0000 C.2     1  LIG1        0.0000
      6 O6          1.0000    1.0000    1.0000 O.2     1  LIG1        0.0000
      7 C7          0.3887   -0.2817    1.0052 C.3     1  LIG1        0.0000
      8 C8         -1.1227   -0.1220    1.0046 C.3     1  LIG1        0.0000
      9 C9         -1.5678    0.6477    2.2376 C.3     1  LIG1        0.0000
     10 C10        -3.0792    0.8105    2.2330 C.3     1  LIG1        0.0000
     11 C11        -3.5295    1.5420    0.9784 C.3     1  LIG1        0.0000
     12 C12        -3.0831    0.7651   -0.2503 C.3     1  LIG1        0.0000
     13 C13        -1.5718    0.6011   -0.2550 C.3     1  LIG1        0.0000
     14 C14         0.8172   -1.0524   -0.2325 C.3     1  LIG1        0.0000
     15 C15         2.3280   -1.2207   -0.2467 C.3     1  LIG1        0.0000
     16 C16         2.7545   -1.9958   -1.4830 C.3     1  LIG1        0.0000
     17 C17         2.0836   -3.3600   -1.5106 C.3     1  LIG1        0.0000
     18 C18         0.5732   -3.1836   -1.4987 C.3     1  LIG1        0.0000
     19 C19         0.1382   -2.4122   -0.2632 C.3     1  LIG1        0.0000
     20 C20         3.3472    1.5176    0.1094 C.2     1  LIG1        0.0000
     21 O21         3.3513    2.1410   -0.9431 O.2     1  LIG1        0.0000
     22 H           0.6707   -0.7821    1.8238 H       1  LIG1        0.0000
     23 H          -1.5426   -1.0295    1.0222 H       1  LIG1        0.0000
     24 H          -1.1377    1.5505    2.2373 H       1  LIG1        0.0000
     25 H          -1.2913    0.1470    3.0579 H       1  LIG1        0.0000
     26 H          -3.3566    1.3352    3.0379 H       1  LIG1        0.0000
     27 H          -3.5080   -0.0925    2.2598 H       1  LIG1        0.0000
     28 H          -3.1226    2.4553    0.9611 H       1  LIG1        0.0000
     29 H          -4.5264    1.6211    0.9785 H       1  LIG1        0.0000
     30 H          -3.5123   -0.1381   -0.2427 H       1  LIG1        0.0000
     31 H          -3.3631    1.2603   -1.0727 H       1  LIG1        0.0000
     32 H          -1.2990    0.0696   -1.0569 H       1  LIG1        0.0000
     33 H          -1.1411    1.5029   -0.2904 H       1  LIG1        0.0000
     34 H           0.5428   -0.5369   -1.0443 H       1  LIG1        0.0000
     35 H           2.6131   -1.7198    0.5715 H       1  LIG1        0.0000
     36 H           2.7613   -0.3195   -0.2554 H       1  LIG1        0.0000
     37 H           3.7470   -2.1169   -1.4698 H       1  LIG1        0.0000
     38 H           2.4920   -1.4829   -2.3003 H       1  LIG1        0.0000
     39 H           2.3640   -3.8855   -0.7073 H       1  LIG1        0.0000
     40 H           2.3555   -3.8483   -2.3398 H       1  LIG1        0.0000
     41 H           0.2941   -2.6802   -2.3164 H       1  LIG1        0.0000
     42 H           0.1366   -4.0833   -1.4959 H       1  LIG1        0.0000
     43 H          -0.8537   -2.2866   -0.2835 H       1  LIG1        0.0000
     44 H           0.3921   -2.9276    0.5553 H       1  LIG1        0.0000
@<TRIPOS>UNITY_ATOM_ATTR
4 1
charge -1
@<TRIPOS>BOND
     1     1     2    2
     2     2     3    1
     3     3     4    1
     4     3     5    2
     5     5     6    1
     6     6     7    1
     7     7     8    1
     8     8     9    1
     9     9    10    1
    10    10    11    1
    11    11    12    1
    12    12    13    1
    13    13     8    1
    14     7    14    1
    15    14    15    1
    16    15    16    1
    17    16    17    1
    18    17    18    1
    19    18    19    1
    20    19    14    1
    21     5    20    1
    22    20     2    1
    23    20    21    2
    24     7    22    1
    25     8    23    1
    26     9    24    1
    27     9    25    1
    28    10    26    1
    29    10    27    1
    30    11    28    1
    31    11    29    1
    32    12    30    1
    33    12    31    1
    34    13    32    1
    35    13    33    1
    36    14    34    1
    37    15    35    1
    38    15    36    1
    39    16    37    1
    40    16    38    1
    41    17    39    1
    42    17    40    1
    43    18    41    1
    44    18    42    1
    45    19    43    1
    46    19    44    1
