@<TRIPOS>MOLECULE
*****
 44 46 0 0 0
SMALL
USER_CHARGES

@<TRIPOS>ATOM
      1 O1          5.5416    1.0475    0.9578 O.2     1  LIG1        0.0000
      2 C2          4.3267    1.0126    0.9986 C.2     1  LIG1        0.0000
      3 C3          3.2425    1.4686    0.1807 C.2     1  LIG1        0.0000
      4 O4          3.1905    2.1356   -0.9898 O.2     1  LIG1       -1.0000
      5 C5          2.3516    1.0000    1.0000 C.2     1  LIG1        0.0000
      6 O6          1.0000    1.0000    1.0000 O.2     1  LIG1        0.0000
      7 C7          0.3887   -0.2817    1.0052 C.3     1  LIG1        0.0000
      8 C8         -1.1227   -0.1220    1.0046 C.3     1  LIG1        0.0000
      9 C9         -1.7927   -1.4866    1.0102 C.3     1  LIG1        0.0000
     10 C10        -3.3042   -1.3251    1.0142 C.3     1  LIG1        0.0000
     11 C11        -3.7486   -0.5277    2.2302 C.3     1  LIG1        0.0000
     12 C12        -3.0766    0.8363    2.2164 C.3     1  LIG1        0.0000
     13 C13        -1.5642    0.6835    2.2160 C.3     1  LIG1        0.0000
     14 C14         0.8172   -1.0524   -0.2325 C.3     1  LIG1        0.0000
     15 C15         0.3955   -0.3040   -1.4867 C.3     1  LIG1        0.0000
     16 C16         0.8289   -1.0739   -2.7237 C.3     1  LIG1        0.0000
     17 C17         2.3366   -1.2712   -2.7237 C.3     1  LIG1        0.0000
     18 C18         2.7505   -2.0224   -1.4679 C.3     1  LIG1        0.0000
     19 C19         2.3237   -1.2569   -0.2259 C.3     1  LIG1        0.0000
     20 C20         3.3472    0.4824    1.8906 C.2     1  LIG1        0.0000
     21 O21         3.3513   -0.1410    2.9431 O.2     1  LIG1        0.0000
     22 H           0.6707   -0.7821    1.8238 H       1  LIG1        0.0000
     23 H          -1.3947    0.3671    0.1759 H       1  LIG1        0.0000
     24 H          -1.5114   -1.9900    1.8272 H       1  LIG1        0.0000
     25 H          -1.5163   -1.9943    0.1942 H       1  LIG1        0.0000
     26 H          -3.7321   -2.2287    1.0383 H       1  LIG1        0.0000
     27 H          -3.5865   -0.8446    0.1839 H       1  LIG1        0.0000
     28 H          -3.4904   -1.0180    3.0627 H       1  LIG1        0.0000
     29 H          -4.7414   -0.4103    2.2070 H       1  LIG1        0.0000
     30 H          -3.3576    1.3335    1.3955 H       1  LIG1        0.0000
     31 H          -3.3555    1.3490    3.0285 H       1  LIG1        0.0000
     32 H          -1.1400    1.5885    2.1843 H       1  LIG1        0.0000
     33 H          -1.2790    0.2107    3.0497 H       1  LIG1        0.0000
     34 H           0.3706   -1.9471   -0.2257 H       1  LIG1        0.0000
     35 H           0.8235    0.5997   -1.4924 H       1  LIG1        0.0000
     36 H          -0.5993   -0.2017   -1.4922 H       1  LIG1        0.0000
     37 H           0.5637   -0.5616   -3.5405 H       1  LIG1        0.0000
     38 H           0.3797   -1.9673   -2.7301 H       1  LIG1        0.0000
     39 H           2.7893   -0.3797   -2.7430 H       1  LIG1        0.0000
     40 H           2.6037   -1.7982   -3.5305 H       1  LIG1        0.0000
     41 H           2.3163   -2.9232   -1.4649 H       1  LIG1        0.0000
     42 H           3.7445   -2.1315   -1.4621 H       1  LIG1        0.0000
     43 H           2.5838   -1.7756    0.5885 H       1  LIG1        0.0000
     44 H           2.7785   -0.3664   -0.2133 H       1  LIG1        0.0000
@<TRIPOS>UNITY_ATOM_ATTR
4 1
charge -1
@<TRIPOS>BOND
     1     1     2    2
     2     2     3    1
     3     3     4    1
     4     3     5    2
     5     5     6    1
     6     6     7    1
     7     7     8    1
     8     8     9    1
     9     9    10    1
    10    10    11    1
    11    11    12    1
    12    12    13    1
    13    13     8    1
    14     7    14    1
    15    14    15    1
    16    15    16    1
    17    16    17    1
    18    17    18    1
    19    18    19    1
    20    19    14    1
    21     5    20    1
    22    20     2    1
    23    20    21    2
    24     7    22    1
    25     8    23    1
    26     9    24    1
    27     9    25    1
    28    10    26    1
    29    10    27    1
    30    11    28    1
    31    11    29    1
    32    12    30    1
    33    12    31    1
    34    13    32    1
    35    13    33    1
    36    14    34    1
    37    15    35    1
    38    15    36    1
    39    16    37    1
    40    16    38    1
    41    17    39    1
    42    17    40    1
    43    18    41    1
    44    18    42    1
    45    19    43    1
    46    19    44    1
