@<TRIPOS>MOLECULE

  23   25
SMALL
USER_CHARGES
@<TRIPOS>ATOM
   1 C1           3.2595    -2.0887    -0.2421 C.ar         1    LIG   0.0000
   2 C2           3.6074    -1.1875     0.7625 C.ar         1    LIG   0.0000
   3 C3           2.7985    -0.0982     1.0765 C.ar         1    LIG   0.0000
   4 C4           1.6012     0.1691     0.4174 C.ar         1    LIG   0.0000
   5 C5           1.3526    -0.7698    -0.5604 C.ar         1    LIG   0.0000
   6 C6           2.0800    -1.8842    -0.9397 C.ar         1    LIG   0.0000
   7 S7          -0.1544    -0.4493    -1.3600 S.3          1    LIG   0.0000
   8 C8          -1.4537    -0.9924    -0.2375 C.3          1    LIG   0.0000
   9 C9          -1.7737     0.1745     0.6903 C.3          1    LIG   0.0000
  10 C10         -0.6730     1.2285     0.8169 C.2          1    LIG   0.0000
  11 N11         -1.0173     2.4573     1.1003 N.2          1    LIG   0.0000
  12 N12          0.0413     3.2332     1.1771 N.2          1    LIG   0.0000
  13 C13          1.1061     2.5011     0.9347 C.2          1    LIG   0.0000
  14 N14          0.7021     1.2183     0.6970 N.pl3        1    LIG   0.0000
  15 H            3.8495    -2.8675    -0.4552 H            1    LIG   0.0000
  16 H            4.4579    -1.3263     1.2698 H            1    LIG   0.0000
  17 H            3.0901     0.5191     1.8072 H            1    LIG   0.0000
  18 H            1.7755    -2.4993    -1.6669 H            1    LIG   0.0000
  19 H           -1.1379    -1.7767     0.2965 H            1    LIG   0.0000
  20 H           -2.2686    -1.2492    -0.7570 H            1    LIG   0.0000
  21 H           -2.5964     0.6267     0.3458 H            1    LIG   0.0000
  22 H           -1.9536    -0.1956     1.6017 H            1    LIG   0.0000
  23 H            2.0512     2.8280     0.9258 H            1    LIG   0.0000
@<TRIPOS>BOND
   1        1        2 ar
   2        2        3 ar
   3        3        4 ar
   4        4        5 ar
   5        5        6 ar
   6        6        1 ar
   7        5        7 1
   8        7        8 1
   9        8        9 1
  10        9       10 1
  11       10       11 2
  12       11       12 1
  13       12       13 2
  14       13       14 1
  15       14       10 1
  16       14        4 1
  17        1       15 1
  18        2       16 1
  19        3       17 1
  20        6       18 1
  21        8       19 1
  22        8       20 1
  23        9       21 1
  24        9       22 1
  25       13       23 1

@<TRIPOS>MOLECULE

  23   25
SMALL
USER_CHARGES
@<TRIPOS>ATOM
   1 C1           3.7080     0.6305    -0.8657 C.ar         1    LIG   0.0000
   2 C2           3.6634    -0.7568    -0.9460 C.ar         1    LIG   0.0000
   3 C3           2.4468    -1.4281    -0.8670 C.ar         1    LIG   0.0000
   4 C4           1.2439    -0.7444    -0.7139 C.ar         1    LIG   0.0000
   5 C5           1.4041     0.6439    -0.6415 C.ar         1    LIG   0.0000
   6 C6           2.5653     1.3883    -0.7054 C.ar         1    LIG   0.0000
   7 S7           0.1213     1.7794    -0.4072 S.3          1    LIG   0.0000
   8 C8          -1.0904     1.2449     0.8305 C.3          1    LIG   0.0000
   9 C9          -0.7448    -0.1403     1.3482 C.3          1    LIG   0.0000
  10 C10         -0.9065    -1.2518     0.3233 C.2          1    LIG   0.0000
  11 N11         -1.8648    -2.1455     0.1121 N.2          1    LIG   0.0000
  12 N12         -1.5893    -2.9301    -0.8997 N.2          1    LIG   0.0000
  13 C13         -0.4237    -2.5401    -1.3640 C.2          1    LIG   0.0000
  14 N14          0.0415    -1.4911    -0.6198 N.pl3        1    LIG   0.0000
  15 H            4.5929     1.0924    -0.9258 H            1    LIG   0.0000
  16 H            4.5106    -1.2755    -1.0611 H            1    LIG   0.0000
  17 H            2.4365    -2.4266    -0.9217 H            1    LIG   0.0000
  18 H            2.5774     2.3861    -0.6414 H            1    LIG   0.0000
  19 H           -1.9992     1.2234     0.4136 H            1    LIG   0.0000
  20 H           -1.0889     1.8914     1.5934 H            1    LIG   0.0000
  21 H            0.2076    -0.1318     1.6528 H            1    LIG   0.0000
  22 H           -1.3415    -0.3419     2.1249 H            1    LIG   0.0000
  23 H            0.0513    -2.9484    -2.1435 H            1    LIG   0.0000
@<TRIPOS>BOND
   1        1        2 ar
   2        2        3 ar
   3        3        4 ar
   4        4        5 ar
   5        5        6 ar
   6        6        1 ar
   7        5        7 1
   8        7        8 1
   9        8        9 1
  10        9       10 1
  11       10       11 2
  12       11       12 1
  13       12       13 2
  14       13       14 1
  15       14       10 1
  16       14        4 1
  17        1       15 1
  18        2       16 1
  19        3       17 1
  20        6       18 1
  21        8       19 1
  22        8       20 1
  23        9       21 1
  24        9       22 1
  25       13       23 1

@<TRIPOS>MOLECULE

  23   25
SMALL
USER_CHARGES
@<TRIPOS>ATOM
   1 C1           3.7089     1.4945     0.0298 C.ar         1    LIG   0.0000
   2 C2           2.9999     2.6736     0.2340 C.ar         1    LIG   0.0000
   3 C3           1.6109     2.6642     0.2451 C.ar         1    LIG   0.0000
   4 C4           0.8763     1.4964     0.0568 C.ar         1    LIG   0.0000
   5 C5           1.6658     0.3478    -0.1510 C.ar         1    LIG   0.0000
   6 C6           3.0526     0.2881    -0.1677 C.ar         1    LIG   0.0000
   7 S7           1.0545    -1.2536    -0.4005 S.3          1    LIG   0.0000
   8 C8          -0.4236    -1.4769     0.6137 C.3          1    LIG   0.0000
   9 C9          -1.5621    -0.8370    -0.1630 C.3          1    LIG   0.0000
  10 C10         -1.5574     0.6759    -0.0029 C.2          1    LIG   0.0000
  11 N11         -2.7375     1.2361     0.0869 N.2          1    LIG   0.0000
  12 N12         -2.5193     2.5201     0.2262 N.2          1    LIG   0.0000
  13 C13         -1.2324     2.7774     0.2295 C.2          1    LIG   0.0000
  14 N14         -0.5439     1.6054     0.0812 N.pl3        1    LIG   0.0000
  15 H            4.7087     1.5166     0.0251 H            1    LIG   0.0000
  16 H            3.4927     3.5325     0.3735 H            1    LIG   0.0000
  17 H            1.1226     3.5243     0.3932 H            1    LIG   0.0000
  18 H            3.5467    -0.5692    -0.3126 H            1    LIG   0.0000
  19 H           -0.3095    -1.0256     1.4988 H            1    LIG   0.0000
  20 H           -0.6037    -2.4501     0.7565 H            1    LIG   0.0000
  21 H           -1.4626    -1.0625    -1.1321 H            1    LIG   0.0000
  22 H           -2.4310    -1.1979     0.1758 H            1    LIG   0.0000
  23 H           -0.8217     3.6841     0.3251 H            1    LIG   0.0000
@<TRIPOS>BOND
   1        1        2 ar
   2        2        3 ar
   3        3        4 ar
   4        4        5 ar
   5        5        6 ar
   6        6        1 ar
   7        5        7 1
   8        7        8 1
   9        8        9 1
  10        9       10 1
  11       10       11 2
  12       11       12 1
  13       12       13 2
  14       13       14 1
  15       14       10 1
  16       14        4 1
  17        1       15 1
  18        2       16 1
  19        3       17 1
  20        6       18 1
  21        8       19 1
  22        8       20 1
  23        9       21 1
  24        9       22 1
  25       13       23 1

@<TRIPOS>MOLECULE

  23   25
SMALL
USER_CHARGES
@<TRIPOS>ATOM
   1 C1          -0.5160    -1.0114    -3.5939 C.ar         1    LIG   0.0000
   2 C2           0.1211    -2.1353    -3.0802 C.ar         1    LIG   0.0000
   3 C3           0.6963    -2.1269    -1.8120 C.ar         1    LIG   0.0000
   4 C4           0.6682    -0.9989    -0.9937 C.ar         1    LIG   0.0000
   5 C5           0.0120     0.0871    -1.5509 C.ar         1    LIG   0.0000
   6 C6          -0.5729     0.1368    -2.8140 C.ar         1    LIG   0.0000
   7 S7          -0.0590     1.4824    -0.5310 S.3          1    LIG   0.0000
   8 C8          -1.3062     1.0624     0.7049 C.3          1    LIG   0.0000
   9 C9          -1.0320    -0.3971     1.0373 C.3          1    LIG   0.0000
  10 C10          0.4367    -0.6644     1.3400 C.2          1    LIG   0.0000
  11 N11          1.1553    -0.6724     2.4431 N.2          1    LIG   0.0000
  12 N12          2.3889    -1.0241     2.1498 N.2          1    LIG   0.0000
  13 C13          2.4654    -1.2253     0.8507 C.2          1    LIG   0.0000
  14 N14          1.2364    -0.9829     0.2985 N.pl3        1    LIG   0.0000
  15 H           -0.9250    -1.0292    -4.5063 H            1    LIG   0.0000
  16 H            0.1674    -2.9672    -3.6330 H            1    LIG   0.0000
  17 H            1.1437    -2.9565    -1.4777 H            1    LIG   0.0000
  18 H           -1.0173     0.9684    -3.1472 H            1    LIG   0.0000
  19 H           -2.2269     1.1732     0.3306 H            1    LIG   0.0000
  20 H           -1.2057     1.6356     1.5182 H            1    LIG   0.0000
  21 H           -1.5750    -0.6505     1.8378 H            1    LIG   0.0000
  22 H           -1.3055    -0.9598     0.2572 H            1    LIG   0.0000
  23 H            3.2843    -1.5079     0.3511 H            1    LIG   0.0000
@<TRIPOS>BOND
   1        1        2 ar
   2        2        3 ar
   3        3        4 ar
   4        4        5 ar
   5        5        6 ar
   6        6        1 ar
   7        5        7 1
   8        7        8 1
   9        8        9 1
  10        9       10 1
  11       10       11 2
  12       11       12 1
  13       12       13 2
  14       13       14 1
  15       14       10 1
  16       14        4 1
  17        1       15 1
  18        2       16 1
  19        3       17 1
  20        6       18 1
  21        8       19 1
  22        8       20 1
  23        9       21 1
  24        9       22 1
  25       13       23 1

@<TRIPOS>MOLECULE

  23   25
SMALL
USER_CHARGES
@<TRIPOS>ATOM
   1 C1          -2.5851     2.8570     0.8932 C.ar         1    LIG   0.0000
   2 C2          -3.2707     1.7672     1.4178 C.ar         1    LIG   0.0000
   3 C3          -2.7454     0.4894     1.2617 C.ar         1    LIG   0.0000
   4 C4          -1.5478     0.2585     0.5911 C.ar         1    LIG   0.0000
   5 C5          -0.8993     1.4146     0.0874 C.ar         1    LIG   0.0000
   6 C6          -1.3848     2.7085     0.2119 C.ar         1    LIG   0.0000
   7 S7           0.5964     1.5033    -0.7966 S.3          1    LIG   0.0000
   8 C8           1.8523     0.2033    -0.5437 C.3          1    LIG   0.0000
   9 C9           1.5238    -1.1477     0.1134 C.3          1    LIG   0.0000
  10 C10          0.0985    -1.6938     0.3065 C.2          1    LIG   0.0000
  11 N11         -0.1152    -2.9985     0.3013 N.2          1    LIG   0.0000
  12 N12         -1.3762    -3.2805     0.5416 N.2          1    LIG   0.0000
  13 C13         -2.0198    -2.1404     0.6647 C.2          1    LIG   0.0000
  14 N14         -1.1365    -1.1048     0.5151 N.pl3        1    LIG   0.0000
  15 H           -2.9673     3.7736     1.0101 H            1    LIG   0.0000
  16 H           -4.1346     1.9013     1.9033 H            1    LIG   0.0000
  17 H           -3.2441    -0.2887     1.6437 H            1    LIG   0.0000
  18 H           -0.8957     3.4930    -0.1692 H            1    LIG   0.0000
  19 H            2.5707     0.6166     0.0158 H            1    LIG   0.0000
  20 H            2.2170    -0.0102    -1.4500 H            1    LIG   0.0000
  21 H            2.0051    -1.8359    -0.4296 H            1    LIG   0.0000
  22 H            1.9233    -1.1065     1.0292 H            1    LIG   0.0000
  23 H           -2.9997    -2.0448     0.8400 H            1    LIG   0.0000
@<TRIPOS>BOND
   1        1        2 ar
   2        2        3 ar
   3        3        4 ar
   4        4        5 ar
   5        5        6 ar
   6        6        1 ar
   7        5        7 1
   8        7        8 1
   9        8        9 1
  10        9       10 1
  11       10       11 2
  12       11       12 1
  13       12       13 2
  14       13       14 1
  15       14       10 1
  16       14        4 1
  17        1       15 1
  18        2       16 1
  19        3       17 1
  20        6       18 1
  21        8       19 1
  22        8       20 1
  23        9       21 1
  24        9       22 1
  25       13       23 1

