@<TRIPOS>MOLECULE
*****
 23 25 0 0 0
SMALL
USER_CHARGES

@<TRIPOS>ATOM
      1 C1          3.7089    1.4945    0.0298 C.ar    1  LIG1        0.0000
      2 C2          2.9999    2.6736    0.2340 C.ar    1  LIG1        0.0000
      3 C3          1.6109    2.6642    0.2451 C.ar    1  LIG1        0.0000
      4 C4          0.8763    1.4964    0.0568 C.ar    1  LIG1        0.0000
      5 C5          1.6658    0.3478   -0.1510 C.ar    1  LIG1        0.0000
      6 C6          3.0526    0.2881   -0.1677 C.ar    1  LIG1        0.0000
      7 S7          1.0545   -1.2536   -0.4005 S.3     1  LIG1        0.0000
      8 C8         -0.4236   -1.4769    0.6137 C.3     1  LIG1        0.0000
      9 C9         -1.5621   -0.8370   -0.1630 C.3     1  LIG1        0.0000
     10 C10        -1.5574    0.6759   -0.0029 C.2     1  LIG1        0.0000
     11 N11        -2.7375    1.2361    0.0869 N.2     1  LIG1        0.0000
     12 N12        -2.5193    2.5201    0.2262 N.2     1  LIG1        0.0000
     13 C13        -1.2324    2.7774    0.2295 C.2     1  LIG1        0.0000
     14 N14        -0.5439    1.6054    0.0812 N.pl3   1  LIG1        0.0000
     15 H           4.7087    1.5166    0.0251 H       1  LIG1        0.0000
     16 H           3.4927    3.5325    0.3735 H       1  LIG1        0.0000
     17 H           1.1226    3.5243    0.3932 H       1  LIG1        0.0000
     18 H           3.5467   -0.5692   -0.3126 H       1  LIG1        0.0000
     19 H          -0.3095   -1.0256    1.4988 H       1  LIG1        0.0000
     20 H          -0.6037   -2.4501    0.7565 H       1  LIG1        0.0000
     21 H          -1.4626   -1.0625   -1.1321 H       1  LIG1        0.0000
     22 H          -2.4310   -1.1979    0.1758 H       1  LIG1        0.0000
     23 H          -0.8217    3.6841    0.3251 H       1  LIG1        0.0000
@<TRIPOS>BOND
     1     1     2   ar
     2     2     3   ar
     3     3     4   ar
     4     4     5   ar
     5     5     6   ar
     6     6     1   ar
     7     5     7    1
     8     7     8    1
     9     8     9    1
    10     9    10    1
    11    10    11    2
    12    11    12    1
    13    12    13    2
    14    13    14    1
    15    14    10    1
    16    14     4    1
    17     1    15    1
    18     2    16    1
    19     3    17    1
    20     6    18    1
    21     8    19    1
    22     8    20    1
    23     9    21    1
    24     9    22    1
    25    13    23    1
