@<TRIPOS>MOLECULE
*****
 23 25 0 0 0
SMALL
USER_CHARGES

@<TRIPOS>ATOM
      1 C1         -2.5851    2.8570    0.8932 C.ar    1  LIG1        0.0000
      2 C2         -3.2707    1.7672    1.4178 C.ar    1  LIG1        0.0000
      3 C3         -2.7454    0.4894    1.2617 C.ar    1  LIG1        0.0000
      4 C4         -1.5478    0.2585    0.5911 C.ar    1  LIG1        0.0000
      5 C5         -0.8993    1.4146    0.0874 C.ar    1  LIG1        0.0000
      6 C6         -1.3848    2.7085    0.2119 C.ar    1  LIG1        0.0000
      7 S7          0.5964    1.5033   -0.7966 S.3     1  LIG1        0.0000
      8 C8          1.8523    0.2033   -0.5437 C.3     1  LIG1        0.0000
      9 C9          1.5238   -1.1477    0.1134 C.3     1  LIG1        0.0000
     10 C10         0.0985   -1.6938    0.3065 C.2     1  LIG1        0.0000
     11 N11        -0.1152   -2.9985    0.3013 N.2     1  LIG1        0.0000
     12 N12        -1.3762   -3.2805    0.5416 N.2     1  LIG1        0.0000
     13 C13        -2.0198   -2.1404    0.6647 C.2     1  LIG1        0.0000
     14 N14        -1.1365   -1.1048    0.5151 N.pl3   1  LIG1        0.0000
     15 H          -2.9673    3.7736    1.0101 H       1  LIG1        0.0000
     16 H          -4.1346    1.9013    1.9033 H       1  LIG1        0.0000
     17 H          -3.2441   -0.2887    1.6437 H       1  LIG1        0.0000
     18 H          -0.8957    3.4930   -0.1692 H       1  LIG1        0.0000
     19 H           2.5707    0.6166    0.0158 H       1  LIG1        0.0000
     20 H           2.2170   -0.0102   -1.4500 H       1  LIG1        0.0000
     21 H           2.0051   -1.8359   -0.4296 H       1  LIG1        0.0000
     22 H           1.9233   -1.1065    1.0292 H       1  LIG1        0.0000
     23 H          -2.9997   -2.0448    0.8400 H       1  LIG1        0.0000
@<TRIPOS>BOND
     1     1     2   ar
     2     2     3   ar
     3     3     4   ar
     4     4     5   ar
     5     5     6   ar
     6     6     1   ar
     7     5     7    1
     8     7     8    1
     9     8     9    1
    10     9    10    1
    11    10    11    2
    12    11    12    1
    13    12    13    2
    14    13    14    1
    15    14    10    1
    16    14     4    1
    17     1    15    1
    18     2    16    1
    19     3    17    1
    20     6    18    1
    21     8    19    1
    22     8    20    1
    23     9    21    1
    24     9    22    1
    25    13    23    1
