@<TRIPOS>MOLECULE
*****
 23 25 0 0 0
SMALL
USER_CHARGES

@<TRIPOS>ATOM
      1 C1          3.2595   -2.0887   -0.2421 C.ar    1  LIG1        0.0000
      2 C2          3.6074   -1.1875    0.7625 C.ar    1  LIG1        0.0000
      3 C3          2.7985   -0.0982    1.0765 C.ar    1  LIG1        0.0000
      4 C4          1.6012    0.1691    0.4174 C.ar    1  LIG1        0.0000
      5 C5          1.3526   -0.7698   -0.5604 C.ar    1  LIG1        0.0000
      6 C6          2.0800   -1.8842   -0.9397 C.ar    1  LIG1        0.0000
      7 S7         -0.1544   -0.4493   -1.3600 S.3     1  LIG1        0.0000
      8 C8         -1.4537   -0.9924   -0.2375 C.3     1  LIG1        0.0000
      9 C9         -1.7737    0.1745    0.6903 C.3     1  LIG1        0.0000
     10 C10        -0.6730    1.2285    0.8169 C.2     1  LIG1        0.0000
     11 N11        -1.0173    2.4573    1.1003 N.2     1  LIG1        0.0000
     12 N12         0.0413    3.2332    1.1771 N.2     1  LIG1        0.0000
     13 C13         1.1061    2.5011    0.9347 C.2     1  LIG1        0.0000
     14 N14         0.7021    1.2183    0.6970 N.pl3   1  LIG1        0.0000
     15 H           3.8495   -2.8675   -0.4552 H       1  LIG1        0.0000
     16 H           4.4579   -1.3263    1.2698 H       1  LIG1        0.0000
     17 H           3.0901    0.5191    1.8072 H       1  LIG1        0.0000
     18 H           1.7755   -2.4993   -1.6669 H       1  LIG1        0.0000
     19 H          -1.1379   -1.7767    0.2965 H       1  LIG1        0.0000
     20 H          -2.2686   -1.2492   -0.7570 H       1  LIG1        0.0000
     21 H          -2.5964    0.6267    0.3458 H       1  LIG1        0.0000
     22 H          -1.9536   -0.1956    1.6017 H       1  LIG1        0.0000
     23 H           2.0512    2.8280    0.9258 H       1  LIG1        0.0000
@<TRIPOS>BOND
     1     1     2   ar
     2     2     3   ar
     3     3     4   ar
     4     4     5   ar
     5     5     6   ar
     6     6     1   ar
     7     5     7    1
     8     7     8    1
     9     8     9    1
    10     9    10    1
    11    10    11    2
    12    11    12    1
    13    12    13    2
    14    13    14    1
    15    14    10    1
    16    14     4    1
    17     1    15    1
    18     2    16    1
    19     3    17    1
    20     6    18    1
    21     8    19    1
    22     8    20    1
    23     9    21    1
    24     9    22    1
    25    13    23    1
