@<TRIPOS>MOLECULE
*****
 23 25 0 0 0
SMALL
USER_CHARGES

@<TRIPOS>ATOM
      1 C1         -0.5160   -1.0114   -3.5939 C.ar    1  LIG1        0.0000
      2 C2          0.1211   -2.1353   -3.0802 C.ar    1  LIG1        0.0000
      3 C3          0.6963   -2.1269   -1.8120 C.ar    1  LIG1        0.0000
      4 C4          0.6682   -0.9989   -0.9937 C.ar    1  LIG1        0.0000
      5 C5          0.0120    0.0871   -1.5509 C.ar    1  LIG1        0.0000
      6 C6         -0.5729    0.1368   -2.8140 C.ar    1  LIG1        0.0000
      7 S7         -0.0590    1.4824   -0.5310 S.3     1  LIG1        0.0000
      8 C8         -1.3062    1.0624    0.7049 C.3     1  LIG1        0.0000
      9 C9         -1.0320   -0.3971    1.0373 C.3     1  LIG1        0.0000
     10 C10         0.4367   -0.6644    1.3400 C.2     1  LIG1        0.0000
     11 N11         1.1553   -0.6724    2.4431 N.2     1  LIG1        0.0000
     12 N12         2.3889   -1.0241    2.1498 N.2     1  LIG1        0.0000
     13 C13         2.4654   -1.2253    0.8507 C.2     1  LIG1        0.0000
     14 N14         1.2364   -0.9829    0.2985 N.pl3   1  LIG1        0.0000
     15 H          -0.9250   -1.0292   -4.5063 H       1  LIG1        0.0000
     16 H           0.1674   -2.9672   -3.6330 H       1  LIG1        0.0000
     17 H           1.1437   -2.9565   -1.4777 H       1  LIG1        0.0000
     18 H          -1.0173    0.9684   -3.1472 H       1  LIG1        0.0000
     19 H          -2.2269    1.1732    0.3306 H       1  LIG1        0.0000
     20 H          -1.2057    1.6356    1.5182 H       1  LIG1        0.0000
     21 H          -1.5750   -0.6505    1.8378 H       1  LIG1        0.0000
     22 H          -1.3055   -0.9598    0.2572 H       1  LIG1        0.0000
     23 H           3.2843   -1.5079    0.3511 H       1  LIG1        0.0000
@<TRIPOS>BOND
     1     1     2   ar
     2     2     3   ar
     3     3     4   ar
     4     4     5   ar
     5     5     6   ar
     6     6     1   ar
     7     5     7    1
     8     7     8    1
     9     8     9    1
    10     9    10    1
    11    10    11    2
    12    11    12    1
    13    12    13    2
    14    13    14    1
    15    14    10    1
    16    14     4    1
    17     1    15    1
    18     2    16    1
    19     3    17    1
    20     6    18    1
    21     8    19    1
    22     8    20    1
    23     9    21    1
    24     9    22    1
    25    13    23    1
