@<TRIPOS>MOLECULE
*****
 23 25 0 0 0
SMALL
USER_CHARGES

@<TRIPOS>ATOM
      1 C1          3.7080    0.6305   -0.8657 C.ar    1  LIG1        0.0000
      2 C2          3.6634   -0.7568   -0.9460 C.ar    1  LIG1        0.0000
      3 C3          2.4468   -1.4281   -0.8670 C.ar    1  LIG1        0.0000
      4 C4          1.2439   -0.7444   -0.7139 C.ar    1  LIG1        0.0000
      5 C5          1.4041    0.6439   -0.6415 C.ar    1  LIG1        0.0000
      6 C6          2.5653    1.3883   -0.7054 C.ar    1  LIG1        0.0000
      7 S7          0.1213    1.7794   -0.4072 S.3     1  LIG1        0.0000
      8 C8         -1.0904    1.2449    0.8305 C.3     1  LIG1        0.0000
      9 C9         -0.7448   -0.1403    1.3482 C.3     1  LIG1        0.0000
     10 C10        -0.9065   -1.2518    0.3233 C.2     1  LIG1        0.0000
     11 N11        -1.8648   -2.1455    0.1121 N.2     1  LIG1        0.0000
     12 N12        -1.5893   -2.9301   -0.8997 N.2     1  LIG1        0.0000
     13 C13        -0.4237   -2.5401   -1.3640 C.2     1  LIG1        0.0000
     14 N14         0.0415   -1.4911   -0.6198 N.pl3   1  LIG1        0.0000
     15 H           4.5929    1.0924   -0.9258 H       1  LIG1        0.0000
     16 H           4.5106   -1.2755   -1.0611 H       1  LIG1        0.0000
     17 H           2.4365   -2.4266   -0.9217 H       1  LIG1        0.0000
     18 H           2.5774    2.3861   -0.6414 H       1  LIG1        0.0000
     19 H          -1.9992    1.2234    0.4136 H       1  LIG1        0.0000
     20 H          -1.0889    1.8914    1.5934 H       1  LIG1        0.0000
     21 H           0.2076   -0.1318    1.6528 H       1  LIG1        0.0000
     22 H          -1.3415   -0.3419    2.1249 H       1  LIG1        0.0000
     23 H           0.0513   -2.9484   -2.1435 H       1  LIG1        0.0000
@<TRIPOS>BOND
     1     1     2   ar
     2     2     3   ar
     3     3     4   ar
     4     4     5   ar
     5     5     6   ar
     6     6     1   ar
     7     5     7    1
     8     7     8    1
     9     8     9    1
    10     9    10    1
    11    10    11    2
    12    11    12    1
    13    12    13    2
    14    13    14    1
    15    14    10    1
    16    14     4    1
    17     1    15    1
    18     2    16    1
    19     3    17    1
    20     6    18    1
    21     8    19    1
    22     8    20    1
    23     9    21    1
    24     9    22    1
    25    13    23    1
