@<TRIPOS>MOLECULE

  30   31
SMALL
USER_CHARGES
@<TRIPOS>ATOM
   1 C1           0.3887    -0.2817     1.0071 C.3          1    LIG   0.0000
   2 O2           1.0000     1.0000     1.0000 O.3          1    LIG   0.0000
   3 C3           2.3508     1.0000     1.0000 C.ar         1    LIG   0.0000
   4 C4           3.0284    -0.2142     1.0054 C.ar         1    LIG   0.0000
   5 C5           4.4191    -0.2345     1.0063 C.ar         1    LIG   0.0000
   6 C6           5.1319     0.9597     1.0006 C.ar         1    LIG   0.0000
   7 C7           4.4540     2.1742     0.9938 C.ar         1    LIG   0.0000
   8 C8           3.0635     2.1944     0.9934 C.ar         1    LIG   0.0000
   9 C9           2.3230     3.5214     0.9856 C.3          1    LIG   0.0000
  10 C10          2.7110     4.3667     2.1845 C.3          1    LIG   0.0000
  11 C11          1.7256     5.5199     2.2355 C.3          1    LIG   0.0000
  12 C12          1.7007     6.2853     0.9233 C.2          1    LIG   0.0000
  13 O13          1.2923     7.4345     0.8742 O.2          1    LIG   0.0000
  14 N14          2.1522     5.6705    -0.2529 N.am         1    LIG   0.0000
  15 C15          2.7017     4.3067    -0.2598 C.3          1    LIG   0.0000
  16 H            1.3366     3.3571     0.9938 H            1    LIG   0.0000
  17 H           -0.6058    -0.1766     1.0065 H            1    LIG   0.0000
  18 H            0.6707    -0.7900     0.1934 H            1    LIG   0.0000
  19 H            0.6707    -0.7809     1.8264 H            1    LIG   0.0000
  20 H            2.5158    -1.0728     1.0085 H            1    LIG   0.0000
  21 H            4.9064    -1.1077     1.0111 H            1    LIG   0.0000
  22 H            6.1318     0.9452     1.0014 H            1    LIG   0.0000
  23 H            4.9665     3.0328     0.9891 H            1    LIG   0.0000
  24 H            3.6429     4.7130     2.0759 H            1    LIG   0.0000
  25 H            2.6524     3.8247     3.0228 H            1    LIG   0.0000
  26 H            0.8113     5.1589     2.4191 H            1    LIG   0.0000
  27 H            1.9918     6.1431     2.9709 H            1    LIG   0.0000
  28 H            2.0989     6.1754    -1.1144 H            1    LIG   0.0000
  29 H            3.6987     4.3626    -0.3131 H            1    LIG   0.0000
  30 H            2.3516     3.8238    -1.0625 H            1    LIG   0.0000
@<TRIPOS>BOND
   1        1        2 1
   2        2        3 1
   3        3        4 ar
   4        4        5 ar
   5        5        6 ar
   6        6        7 ar
   7        7        8 ar
   8        8        3 ar
   9        8        9 1
  10        9       10 1
  11       10       11 1
  12       11       12 1
  13       12       13 2
  14       12       14 am
  15       14       15 1
  16       15        9 1
  17        9       16 1
  18        1       17 1
  19        1       18 1
  20        1       19 1
  21        4       20 1
  22        5       21 1
  23        6       22 1
  24        7       23 1
  25       10       24 1
  26       10       25 1
  27       11       26 1
  28       11       27 1
  29       14       28 1
  30       15       29 1
  31       15       30 1

@<TRIPOS>MOLECULE

  30   31
SMALL
USER_CHARGES
@<TRIPOS>ATOM
   1 C1           0.3887    -0.2817     1.0071 C.3          1    LIG   0.0000
   2 O2           1.0000     1.0000     1.0000 O.3          1    LIG   0.0000
   3 C3           2.3508     1.0000     1.0000 C.ar         1    LIG   0.0000
   4 C4           3.0284    -0.2142     1.0054 C.ar         1    LIG   0.0000
   5 C5           4.4191    -0.2345     1.0063 C.ar         1    LIG   0.0000
   6 C6           5.1319     0.9597     1.0006 C.ar         1    LIG   0.0000
   7 C7           4.4540     2.1742     0.9938 C.ar         1    LIG   0.0000
   8 C8           3.0635     2.1944     0.9934 C.ar         1    LIG   0.0000
   9 C9           2.3230     3.5214     0.9856 C.3          1    LIG   0.0000
  10 C10          3.2951     4.6853     0.9335 C.3          1    LIG   0.0000
  11 C11          2.4838     5.9370     1.2137 C.3          1    LIG   0.0000
  12 C12          1.3150     6.0661     0.2517 C.2          1    LIG   0.0000
  13 O13          0.7855     7.1469     0.0479 O.2          1    LIG   0.0000
  14 N14          0.8315     4.9324    -0.4165 N.am         1    LIG   0.0000
  15 C15          1.4503     3.6083    -0.2562 C.3          1    LIG   0.0000
  16 H            1.7531     3.5943     1.8041 H            1    LIG   0.0000
  17 H           -0.6058    -0.1766     1.0065 H            1    LIG   0.0000
  18 H            0.6707    -0.7900     0.1934 H            1    LIG   0.0000
  19 H            0.6707    -0.7809     1.8264 H            1    LIG   0.0000
  20 H            2.5158    -1.0728     1.0085 H            1    LIG   0.0000
  21 H            4.9064    -1.1077     1.0111 H            1    LIG   0.0000
  22 H            6.1318     0.9452     1.0014 H            1    LIG   0.0000
  23 H            4.9665     3.0328     0.9891 H            1    LIG   0.0000
  24 H            3.7173     4.7425     0.0288 H            1    LIG   0.0000
  25 H            4.0067     4.5724     1.6269 H            1    LIG   0.0000
  26 H            2.1323     5.8945     2.1490 H            1    LIG   0.0000
  27 H            3.0756     6.7371     1.1160 H            1    LIG   0.0000
  28 H            0.0407     5.0273    -1.0212 H            1    LIG   0.0000
  29 H            2.0152     3.4188    -1.0593 H            1    LIG   0.0000
  30 H            0.7263     2.9219    -0.1883 H            1    LIG   0.0000
@<TRIPOS>BOND
   1        1        2 1
   2        2        3 1
   3        3        4 ar
   4        4        5 ar
   5        5        6 ar
   6        6        7 ar
   7        7        8 ar
   8        8        3 ar
   9        8        9 1
  10        9       10 1
  11       10       11 1
  12       11       12 1
  13       12       13 2
  14       12       14 am
  15       14       15 1
  16       15        9 1
  17        9       16 1
  18        1       17 1
  19        1       18 1
  20        1       19 1
  21        4       20 1
  22        5       21 1
  23        6       22 1
  24        7       23 1
  25       10       24 1
  26       10       25 1
  27       11       26 1
  28       11       27 1
  29       14       28 1
  30       15       29 1
  31       15       30 1

@<TRIPOS>MOLECULE

  30   31
SMALL
USER_CHARGES
@<TRIPOS>ATOM
   1 C1           0.3887    -0.2817     1.0071 C.3          1    LIG   0.0000
   2 O2           1.0000     1.0000     1.0000 O.3          1    LIG   0.0000
   3 C3           2.3508     1.0000     1.0000 C.ar         1    LIG   0.0000
   4 C4           3.0284    -0.2142     1.0054 C.ar         1    LIG   0.0000
   5 C5           4.4191    -0.2345     1.0063 C.ar         1    LIG   0.0000
   6 C6           5.1319     0.9597     1.0006 C.ar         1    LIG   0.0000
   7 C7           4.4540     2.1742     0.9938 C.ar         1    LIG   0.0000
   8 C8           3.0635     2.1944     0.9934 C.ar         1    LIG   0.0000
   9 C9           2.3230     3.5214     0.9856 C.3          1    LIG   0.0000
  10 C10          1.4744     3.6768     2.2338 C.3          1    LIG   0.0000
  11 C11          0.5757     4.8767     1.9971 C.3          1    LIG   0.0000
  12 C12          1.3847     6.1131     1.6434 C.2          1    LIG   0.0000
  13 O13          0.9195     7.2319     1.7919 O.2          1    LIG   0.0000
  14 N14          2.6856     5.9763     1.1392 N.am         1    LIG   0.0000
  15 C15          3.3270     4.6629     0.9794 C.3          1    LIG   0.0000
  16 H            1.7421     3.5787     0.1736 H            1    LIG   0.0000
  17 H           -0.6058    -0.1766     1.0065 H            1    LIG   0.0000
  18 H            0.6707    -0.7900     0.1934 H            1    LIG   0.0000
  19 H            0.6707    -0.7809     1.8264 H            1    LIG   0.0000
  20 H            2.5158    -1.0728     1.0085 H            1    LIG   0.0000
  21 H            4.9064    -1.1077     1.0111 H            1    LIG   0.0000
  22 H            6.1318     0.9452     1.0014 H            1    LIG   0.0000
  23 H            4.9665     3.0328     0.9891 H            1    LIG   0.0000
  24 H            2.0577     3.8339     3.0308 H            1    LIG   0.0000
  25 H            0.9229     2.8558     2.3811 H            1    LIG   0.0000
  26 H           -0.0502     4.6712     1.2448 H            1    LIG   0.0000
  27 H            0.0498     5.0585     2.8280 H            1    LIG   0.0000
  28 H            3.1934     6.7978     0.8800 H            1    LIG   0.0000
  29 H            3.9720     4.5271     1.7314 H            1    LIG   0.0000
  30 H            3.8213     4.6508     0.1101 H            1    LIG   0.0000
@<TRIPOS>BOND
   1        1        2 1
   2        2        3 1
   3        3        4 ar
   4        4        5 ar
   5        5        6 ar
   6        6        7 ar
   7        7        8 ar
   8        8        3 ar
   9        8        9 1
  10        9       10 1
  11       10       11 1
  12       11       12 1
  13       12       13 2
  14       12       14 am
  15       14       15 1
  16       15        9 1
  17        9       16 1
  18        1       17 1
  19        1       18 1
  20        1       19 1
  21        4       20 1
  22        5       21 1
  23        6       22 1
  24        7       23 1
  25       10       24 1
  26       10       25 1
  27       11       26 1
  28       11       27 1
  29       14       28 1
  30       15       29 1
  31       15       30 1

@<TRIPOS>MOLECULE

  30   31
SMALL
USER_CHARGES
@<TRIPOS>ATOM
   1 C1           0.3887    -0.2817     1.0071 C.3          1    LIG   0.0000
   2 O2           1.0000     1.0000     1.0000 O.3          1    LIG   0.0000
   3 C3           2.3508     1.0000     1.0000 C.ar         1    LIG   0.0000
   4 C4           3.0284    -0.2142     1.0054 C.ar         1    LIG   0.0000
   5 C5           4.4191    -0.2345     1.0063 C.ar         1    LIG   0.0000
   6 C6           5.1319     0.9597     1.0006 C.ar         1    LIG   0.0000
   7 C7           4.4540     2.1742     0.9938 C.ar         1    LIG   0.0000
   8 C8           3.0635     2.1944     0.9934 C.ar         1    LIG   0.0000
   9 C9           2.3230     3.5214     0.9856 C.3          1    LIG   0.0000
  10 C10          1.4058     3.6242    -0.2188 C.3          1    LIG   0.0000
  11 C11          0.9420     5.0678    -0.2850 C.3          1    LIG   0.0000
  12 C12          0.2971     5.5026     1.0202 C.2          1    LIG   0.0000
  13 O13         -0.4667     6.4540     1.0571 O.2          1    LIG   0.0000
  14 N14          0.5775     4.8060     2.2041 N.am         1    LIG   0.0000
  15 C15          1.4496     3.6225     2.2259 C.3          1    LIG   0.0000
  16 H            2.9807     4.2745     0.9740 H            1    LIG   0.0000
  17 H           -0.6058    -0.1766     1.0065 H            1    LIG   0.0000
  18 H            0.6707    -0.7900     0.1934 H            1    LIG   0.0000
  19 H            0.6707    -0.7809     1.8264 H            1    LIG   0.0000
  20 H            2.5158    -1.0728     1.0085 H            1    LIG   0.0000
  21 H            4.9064    -1.1077     1.0111 H            1    LIG   0.0000
  22 H            6.1318     0.9452     1.0014 H            1    LIG   0.0000
  23 H            4.9665     3.0328     0.9891 H            1    LIG   0.0000
  24 H            0.6213     3.0140    -0.1087 H            1    LIG   0.0000
  25 H            1.9020     3.3821    -1.0525 H            1    LIG   0.0000
  26 H            1.7302     5.6548    -0.4699 H            1    LIG   0.0000
  27 H            0.2755     5.1620    -1.0245 H            1    LIG   0.0000
  28 H            0.1715     5.1241     3.0608 H            1    LIG   0.0000
  29 H            0.8783     2.8038     2.2836 H            1    LIG   0.0000
  30 H            2.0405     3.6741     3.0310 H            1    LIG   0.0000
@<TRIPOS>BOND
   1        1        2 1
   2        2        3 1
   3        3        4 ar
   4        4        5 ar
   5        5        6 ar
   6        6        7 ar
   7        7        8 ar
   8        8        3 ar
   9        8        9 1
  10        9       10 1
  11       10       11 1
  12       11       12 1
  13       12       13 2
  14       12       14 am
  15       14       15 1
  16       15        9 1
  17        9       16 1
  18        1       17 1
  19        1       18 1
  20        1       19 1
  21        4       20 1
  22        5       21 1
  23        6       22 1
  24        7       23 1
  25       10       24 1
  26       10       25 1
  27       11       26 1
  28       11       27 1
  29       14       28 1
  30       15       29 1
  31       15       30 1

@<TRIPOS>MOLECULE

  30   31
SMALL
USER_CHARGES
@<TRIPOS>ATOM
   1 C1           0.3887    -0.2817     1.0071 C.3          1    LIG   0.0000
   2 O2           1.0000     1.0000     1.0000 O.3          1    LIG   0.0000
   3 C3           2.3508     1.0000     1.0000 C.ar         1    LIG   0.0000
   4 C4           3.0284    -0.2142     1.0054 C.ar         1    LIG   0.0000
   5 C5           4.4191    -0.2345     1.0063 C.ar         1    LIG   0.0000
   6 C6           5.1319     0.9597     1.0006 C.ar         1    LIG   0.0000
   7 C7           4.4540     2.1742     0.9938 C.ar         1    LIG   0.0000
   8 C8           3.0635     2.1944     0.9934 C.ar         1    LIG   0.0000
   9 C9           2.3227     3.5219     0.9856 C.3          1    LIG   0.0000
  10 C10          2.5903     4.3414     2.2406 C.3          1    LIG   0.0000
  11 C11          4.0916     4.5646     2.3273 C.3          1    LIG   0.0000
  12 C12          4.6798     5.1347     1.0428 C.2          1    LIG   0.0000
  13 O13          5.7488     5.7224     1.0490 O.2          1    LIG   0.0000
  14 N14          3.9934     4.9840    -0.1649 N.am         1    LIG   0.0000
  15 C15          2.6678     4.3468    -0.2426 C.3          1    LIG   0.0000
  16 H            1.3430     3.3239     0.9542 H            1    LIG   0.0000
  17 H           -0.6058    -0.1766     1.0065 H            1    LIG   0.0000
  18 H            0.6707    -0.7900     0.1934 H            1    LIG   0.0000
  19 H            0.6707    -0.7809     1.8264 H            1    LIG   0.0000
  20 H            2.5158    -1.0728     1.0085 H            1    LIG   0.0000
  21 H            4.9064    -1.1077     1.0111 H            1    LIG   0.0000
  22 H            6.1318     0.9452     1.0014 H            1    LIG   0.0000
  23 H            4.9665     3.0328     0.9891 H            1    LIG   0.0000
  24 H            2.2716     3.8444     3.0477 H            1    LIG   0.0000
  25 H            2.1170     5.2204     2.1821 H            1    LIG   0.0000
  26 H            4.2770     5.2031     3.0743 H            1    LIG   0.0000
  27 H            4.5341     3.6887     2.5199 H            1    LIG   0.0000
  28 H            4.4170     5.3207    -1.0059 H            1    LIG   0.0000
  29 H            2.6508     3.7468    -1.0425 H            1    LIG   0.0000
  30 H            1.9775     5.0626    -0.3481 H            1    LIG   0.0000
@<TRIPOS>BOND
   1        1        2 1
   2        2        3 1
   3        3        4 ar
   4        4        5 ar
   5        5        6 ar
   6        6        7 ar
   7        7        8 ar
   8        8        3 ar
   9        8        9 1
  10        9       10 1
  11       10       11 1
  12       11       12 1
  13       12       13 2
  14       12       14 am
  15       14       15 1
  16       15        9 1
  17        9       16 1
  18        1       17 1
  19        1       18 1
  20        1       19 1
  21        4       20 1
  22        5       21 1
  23        6       22 1
  24        7       23 1
  25       10       24 1
  26       10       25 1
  27       11       26 1
  28       11       27 1
  29       14       28 1
  30       15       29 1
  31       15       30 1

@<TRIPOS>MOLECULE

  30   31
SMALL
USER_CHARGES
@<TRIPOS>ATOM
   1 C1           0.3887    -0.2817     1.0071 C.3          1    LIG   0.0000
   2 O2           1.0000     1.0000     1.0000 O.3          1    LIG   0.0000
   3 C3           2.3508     1.0000     1.0000 C.ar         1    LIG   0.0000
   4 C4           3.0284    -0.2142     1.0054 C.ar         1    LIG   0.0000
   5 C5           4.4191    -0.2345     1.0063 C.ar         1    LIG   0.0000
   6 C6           5.1319     0.9597     1.0006 C.ar         1    LIG   0.0000
   7 C7           4.4540     2.1742     0.9938 C.ar         1    LIG   0.0000
   8 C8           3.0635     2.1944     0.9934 C.ar         1    LIG   0.0000
   9 C9           2.3227     3.5219     0.9856 C.3          1    LIG   0.0000
  10 C10          1.3628     3.6559     2.1599 C.3          1    LIG   0.0000
  11 C11          2.1778     3.5030     3.4341 C.3          1    LIG   0.0000
  12 C12          3.3876     4.4278     3.4767 C.2          1    LIG   0.0000
  13 O13          3.9168     4.7204     4.5362 O.2          1    LIG   0.0000
  14 N14          3.9075     4.9505     2.2896 N.am         1    LIG   0.0000
  15 C15          3.2844     4.6980     0.9792 C.3          1    LIG   0.0000
  16 H            1.7832     3.5649     0.1447 H            1    LIG   0.0000
  17 H           -0.6058    -0.1766     1.0065 H            1    LIG   0.0000
  18 H            0.6707    -0.7900     0.1934 H            1    LIG   0.0000
  19 H            0.6707    -0.7809     1.8264 H            1    LIG   0.0000
  20 H            2.5158    -1.0728     1.0085 H            1    LIG   0.0000
  21 H            4.9064    -1.1077     1.0111 H            1    LIG   0.0000
  22 H            6.1318     0.9452     1.0014 H            1    LIG   0.0000
  23 H            4.9665     3.0328     0.9891 H            1    LIG   0.0000
  24 H            0.6642     2.9419     2.1133 H            1    LIG   0.0000
  25 H            0.9232     4.5540     2.1411 H            1    LIG   0.0000
  26 H            1.5899     3.7102     4.2160 H            1    LIG   0.0000
  27 H            2.4964     2.5573     3.4979 H            1    LIG   0.0000
  28 H            4.7314     5.5157     2.3313 H            1    LIG   0.0000
  29 H            4.0081     4.5122     0.3145 H            1    LIG   0.0000
  30 H            2.7815     5.5174     0.7041 H            1    LIG   0.0000
@<TRIPOS>BOND
   1        1        2 1
   2        2        3 1
   3        3        4 ar
   4        4        5 ar
   5        5        6 ar
   6        6        7 ar
   7        7        8 ar
   8        8        3 ar
   9        8        9 1
  10        9       10 1
  11       10       11 1
  12       11       12 1
  13       12       13 2
  14       12       14 am
  15       14       15 1
  16       15        9 1
  17        9       16 1
  18        1       17 1
  19        1       18 1
  20        1       19 1
  21        4       20 1
  22        5       21 1
  23        6       22 1
  24        7       23 1
  25       10       24 1
  26       10       25 1
  27       11       26 1
  28       11       27 1
  29       14       28 1
  30       15       29 1
  31       15       30 1

@<TRIPOS>MOLECULE

  30   31
SMALL
USER_CHARGES
@<TRIPOS>ATOM
   1 C1           0.3887    -0.2817     1.0071 C.3          1    LIG   0.0000
   2 O2           1.0000     1.0000     1.0000 O.3          1    LIG   0.0000
   3 C3           2.3508     1.0000     1.0000 C.ar         1    LIG   0.0000
   4 C4           3.0284    -0.2142     1.0054 C.ar         1    LIG   0.0000
   5 C5           4.4191    -0.2345     1.0063 C.ar         1    LIG   0.0000
   6 C6           5.1319     0.9597     1.0006 C.ar         1    LIG   0.0000
   7 C7           4.4540     2.1742     0.9938 C.ar         1    LIG   0.0000
   8 C8           3.0635     2.1944     0.9934 C.ar         1    LIG   0.0000
   9 C9           2.3237     3.5202     0.9856 C.3          1    LIG   0.0000
  10 C10          2.4929     4.2450     2.3170 C.3          1    LIG   0.0000
  11 C11          2.7823     5.7411     2.2152 C.3          1    LIG   0.0000
  12 C12          2.1388     6.3875     0.9967 C.2          1    LIG   0.0000
  13 O13          1.6462     7.5053     1.0852 O.2          1    LIG   0.0000
  14 N14          2.1119     5.6768    -0.2108 N.am         1    LIG   0.0000
  15 C15          2.6906     4.3221    -0.2561 C.3          1    LIG   0.0000
  16 H            1.3513     3.3012     0.9041 H            1    LIG   0.0000
  17 H           -0.6058    -0.1766     1.0065 H            1    LIG   0.0000
  18 H            0.6707    -0.7900     0.1934 H            1    LIG   0.0000
  19 H            0.6707    -0.7809     1.8264 H            1    LIG   0.0000
  20 H            2.5158    -1.0728     1.0085 H            1    LIG   0.0000
  21 H            4.9064    -1.1077     1.0111 H            1    LIG   0.0000
  22 H            6.1318     0.9452     1.0014 H            1    LIG   0.0000
  23 H            4.9665     3.0328     0.9891 H            1    LIG   0.0000
  24 H            3.2517     3.8165     2.8075 H            1    LIG   0.0000
  25 H            1.6492     4.1288     2.8412 H            1    LIG   0.0000
  26 H            2.4320     6.1904     3.0370 H            1    LIG   0.0000
  27 H            3.7722     5.8715     2.1602 H            1    LIG   0.0000
  28 H            1.7061     6.0828    -1.0296 H            1    LIG   0.0000
  29 H            3.6862     4.3952    -0.3140 H            1    LIG   0.0000
  30 H            2.3437     3.8469    -1.0647 H            1    LIG   0.0000
@<TRIPOS>BOND
   1        1        2 1
   2        2        3 1
   3        3        4 ar
   4        4        5 ar
   5        5        6 ar
   6        6        7 ar
   7        7        8 ar
   8        8        3 ar
   9        8        9 1
  10        9       10 1
  11       10       11 1
  12       11       12 1
  13       12       13 2
  14       12       14 am
  15       14       15 1
  16       15        9 1
  17        9       16 1
  18        1       17 1
  19        1       18 1
  20        1       19 1
  21        4       20 1
  22        5       21 1
  23        6       22 1
  24        7       23 1
  25       10       24 1
  26       10       25 1
  27       11       26 1
  28       11       27 1
  29       14       28 1
  30       15       29 1
  31       15       30 1

@<TRIPOS>MOLECULE

  30   31
SMALL
USER_CHARGES
@<TRIPOS>ATOM
   1 C1           0.3887    -0.2817     1.0071 C.3          1    LIG   0.0000
   2 O2           1.0000     1.0000     1.0000 O.3          1    LIG   0.0000
   3 C3           2.3508     1.0000     1.0000 C.ar         1    LIG   0.0000
   4 C4           3.0284    -0.2142     1.0054 C.ar         1    LIG   0.0000
   5 C5           4.4191    -0.2345     1.0063 C.ar         1    LIG   0.0000
   6 C6           5.1319     0.9597     1.0006 C.ar         1    LIG   0.0000
   7 C7           4.4540     2.1742     0.9938 C.ar         1    LIG   0.0000
   8 C8           3.0635     2.1944     0.9934 C.ar         1    LIG   0.0000
   9 C9           2.3237     3.5202     0.9856 C.3          1    LIG   0.0000
  10 C10          1.2658     3.5588     2.0838 C.3          1    LIG   0.0000
  11 C11          1.1968     4.8601     2.8802 C.3          1    LIG   0.0000
  12 C12          1.5782     6.0808     2.0548 C.2          1    LIG   0.0000
  13 O13          0.9638     7.1310     2.1953 O.2          1    LIG   0.0000
  14 N14          2.6276     5.9724     1.1323 N.am         1    LIG   0.0000
  15 C15          3.3140     4.6773     0.9793 C.3          1    LIG   0.0000
  16 H            1.8311     3.5644     0.1165 H            1    LIG   0.0000
  17 H           -0.6058    -0.1766     1.0065 H            1    LIG   0.0000
  18 H            0.6707    -0.7900     0.1934 H            1    LIG   0.0000
  19 H            0.6707    -0.7809     1.8264 H            1    LIG   0.0000
  20 H            2.5158    -1.0728     1.0085 H            1    LIG   0.0000
  21 H            4.9064    -1.1077     1.0111 H            1    LIG   0.0000
  22 H            6.1318     0.9452     1.0014 H            1    LIG   0.0000
  23 H            4.9665     3.0328     0.9891 H            1    LIG   0.0000
  24 H            1.4580     2.8150     2.7240 H            1    LIG   0.0000
  25 H            0.3733     3.4098     1.6580 H            1    LIG   0.0000
  26 H            0.2620     4.9804     3.2144 H            1    LIG   0.0000
  27 H            1.8225     4.7922     3.6572 H            1    LIG   0.0000
  28 H            2.9065     6.7621     0.5860 H            1    LIG   0.0000
  29 H            3.9578     4.5588     1.7352 H            1    LIG   0.0000
  30 H            3.8131     4.6738     0.1127 H            1    LIG   0.0000
@<TRIPOS>BOND
   1        1        2 1
   2        2        3 1
   3        3        4 ar
   4        4        5 ar
   5        5        6 ar
   6        6        7 ar
   7        7        8 ar
   8        8        3 ar
   9        8        9 1
  10        9       10 1
  11       10       11 1
  12       11       12 1
  13       12       13 2
  14       12       14 am
  15       14       15 1
  16       15        9 1
  17        9       16 1
  18        1       17 1
  19        1       18 1
  20        1       19 1
  21        4       20 1
  22        5       21 1
  23        6       22 1
  24        7       23 1
  25       10       24 1
  26       10       25 1
  27       11       26 1
  28       11       27 1
  29       14       28 1
  30       15       29 1
  31       15       30 1

@<TRIPOS>MOLECULE

  30   31
SMALL
USER_CHARGES
@<TRIPOS>ATOM
   1 C1           0.3887    -0.2817     1.0071 C.3          1    LIG   0.0000
   2 O2           1.0000     1.0000     1.0000 O.3          1    LIG   0.0000
   3 C3           2.3508     1.0000     1.0000 C.ar         1    LIG   0.0000
   4 C4           3.0284    -0.2142     1.0054 C.ar         1    LIG   0.0000
   5 C5           4.4191    -0.2345     1.0063 C.ar         1    LIG   0.0000
   6 C6           5.1319     0.9597     1.0006 C.ar         1    LIG   0.0000
   7 C7           4.4540     2.1742     0.9938 C.ar         1    LIG   0.0000
   8 C8           3.0635     2.1944     0.9934 C.ar         1    LIG   0.0000
   9 C9           2.3237     3.5202     0.9856 C.3          1    LIG   0.0000
  10 C10          1.6245     3.7448    -0.3513 C.3          1    LIG   0.0000
  11 C11          0.1989     4.2849    -0.2614 C.3          1    LIG   0.0000
  12 C12         -0.0195     5.1827     0.9481 C.2          1    LIG   0.0000
  13 O13         -0.7117     6.1880     0.8471 O.2          1    LIG   0.0000
  14 N14          0.5935     4.8432     2.1617 N.am         1    LIG   0.0000
  15 C15          1.4424     3.6400     2.2220 C.3          1    LIG   0.0000
  16 H            3.0201     4.2334     1.0642 H            1    LIG   0.0000
  17 H           -0.6058    -0.1766     1.0065 H            1    LIG   0.0000
  18 H            0.6707    -0.7900     0.1934 H            1    LIG   0.0000
  19 H            0.6707    -0.7809     1.8264 H            1    LIG   0.0000
  20 H            2.5158    -1.0728     1.0085 H            1    LIG   0.0000
  21 H            4.9064    -1.1077     1.0111 H            1    LIG   0.0000
  22 H            6.1318     0.9452     1.0014 H            1    LIG   0.0000
  23 H            4.9665     3.0328     0.9891 H            1    LIG   0.0000
  24 H            1.5932     2.8697    -0.8342 H            1    LIG   0.0000
  25 H            2.1690     4.3972    -0.8786 H            1    LIG   0.0000
  26 H            0.0044     4.8115    -1.0889 H            1    LIG   0.0000
  27 H           -0.4322     3.5113    -0.2026 H            1    LIG   0.0000
  28 H            0.4569     5.4091     2.9749 H            1    LIG   0.0000
  29 H            0.8571     2.8316     2.2841 H            1    LIG   0.0000
  30 H            2.0249     3.6929     3.0331 H            1    LIG   0.0000
@<TRIPOS>BOND
   1        1        2 1
   2        2        3 1
   3        3        4 ar
   4        4        5 ar
   5        5        6 ar
   6        6        7 ar
   7        7        8 ar
   8        8        3 ar
   9        8        9 1
  10        9       10 1
  11       10       11 1
  12       11       12 1
  13       12       13 2
  14       12       14 am
  15       14       15 1
  16       15        9 1
  17        9       16 1
  18        1       17 1
  19        1       18 1
  20        1       19 1
  21        4       20 1
  22        5       21 1
  23        6       22 1
  24        7       23 1
  25       10       24 1
  26       10       25 1
  27       11       26 1
  28       11       27 1
  29       14       28 1
  30       15       29 1
  31       15       30 1

@<TRIPOS>MOLECULE

  30   31
SMALL
USER_CHARGES
@<TRIPOS>ATOM
   1 C1           0.3887    -0.2817     1.0071 C.3          1    LIG   0.0000
   2 O2           1.0000     1.0000     1.0000 O.3          1    LIG   0.0000
   3 C3           2.3508     1.0000     1.0000 C.ar         1    LIG   0.0000
   4 C4           3.0284    -0.2142     1.0054 C.ar         1    LIG   0.0000
   5 C5           4.4191    -0.2345     1.0063 C.ar         1    LIG   0.0000
   6 C6           5.1319     0.9597     1.0006 C.ar         1    LIG   0.0000
   7 C7           4.4540     2.1742     0.9938 C.ar         1    LIG   0.0000
   8 C8           3.0635     2.1944     0.9934 C.ar         1    LIG   0.0000
   9 C9           2.3229     3.5215     0.9856 C.3          1    LIG   0.0000
  10 C10          2.6553     4.2015     2.3083 C.3          1    LIG   0.0000
  11 C11          3.2081     5.6227     2.1738 C.3          1    LIG   0.0000
  12 C12          4.2818     5.5993     1.1053 C.2          1    LIG   0.0000
  13 O13          5.3622     6.1480     1.2882 O.2          1    LIG   0.0000
  14 N14          4.0384     4.9259    -0.1018 N.am         1    LIG   0.0000
  15 C15          2.7446     4.2516    -0.2779 C.3          1    LIG   0.0000
  16 H            1.3393     3.3456     0.9476 H            1    LIG   0.0000
  17 H           -0.6058    -0.1766     1.0065 H            1    LIG   0.0000
  18 H            0.6707    -0.7900     0.1934 H            1    LIG   0.0000
  19 H            0.6707    -0.7809     1.8264 H            1    LIG   0.0000
  20 H            2.5158    -1.0728     1.0085 H            1    LIG   0.0000
  21 H            4.9064    -1.1077     1.0111 H            1    LIG   0.0000
  22 H            6.1318     0.9452     1.0014 H            1    LIG   0.0000
  23 H            4.9665     3.0328     0.9891 H            1    LIG   0.0000
  24 H            3.3378     3.6450     2.7821 H            1    LIG   0.0000
  25 H            1.8198     4.2425     2.8563 H            1    LIG   0.0000
  26 H            2.4758     6.2493     1.9072 H            1    LIG   0.0000
  27 H            3.6003     5.9195     3.0445 H            1    LIG   0.0000
  28 H            4.7289     4.9054    -0.8248 H            1    LIG   0.0000
  29 H            2.8209     3.5913    -1.0250 H            1    LIG   0.0000
  30 H            2.0504     4.9343    -0.5061 H            1    LIG   0.0000
@<TRIPOS>BOND
   1        1        2 1
   2        2        3 1
   3        3        4 ar
   4        4        5 ar
   5        5        6 ar
   6        6        7 ar
   7        7        8 ar
   8        8        3 ar
   9        8        9 1
  10        9       10 1
  11       10       11 1
  12       11       12 1
  13       12       13 2
  14       12       14 am
  15       14       15 1
  16       15        9 1
  17        9       16 1
  18        1       17 1
  19        1       18 1
  20        1       19 1
  21        4       20 1
  22        5       21 1
  23        6       22 1
  24        7       23 1
  25       10       24 1
  26       10       25 1
  27       11       26 1
  28       11       27 1
  29       14       28 1
  30       15       29 1
  31       15       30 1

@<TRIPOS>MOLECULE

  30   31
SMALL
USER_CHARGES
@<TRIPOS>ATOM
   1 C1           0.3887    -0.2817     1.0071 C.3          1    LIG   0.0000
   2 O2           1.0000     1.0000     1.0000 O.3          1    LIG   0.0000
   3 C3           2.3508     1.0000     1.0000 C.ar         1    LIG   0.0000
   4 C4           3.0284    -0.2142     1.0054 C.ar         1    LIG   0.0000
   5 C5           4.4191    -0.2345     1.0063 C.ar         1    LIG   0.0000
   6 C6           5.1319     0.9597     1.0006 C.ar         1    LIG   0.0000
   7 C7           4.4540     2.1742     0.9938 C.ar         1    LIG   0.0000
   8 C8           3.0635     2.1944     0.9934 C.ar         1    LIG   0.0000
   9 C9           2.3229     3.5215     0.9856 C.3          1    LIG   0.0000
  10 C10          1.5763     3.5839    -0.3414 C.3          1    LIG   0.0000
  11 C11          0.0758     3.8607    -0.2168 C.3          1    LIG   0.0000
  12 C12         -0.4734     2.9442     0.8572 C.2          1    LIG   0.0000
  13 O13         -1.5067     2.3111     0.6748 O.2          1    LIG   0.0000
  14 N14          0.2216     2.8085     2.0690 N.am         1    LIG   0.0000
  15 C15          1.4739     3.5572     2.2447 C.3          1    LIG   0.0000
  16 H            2.9889     4.2666     1.0203 H            1    LIG   0.0000
  17 H           -0.6058    -0.1766     1.0065 H            1    LIG   0.0000
  18 H            0.6707    -0.7900     0.1934 H            1    LIG   0.0000
  19 H            0.6707    -0.7809     1.8264 H            1    LIG   0.0000
  20 H            2.5158    -1.0728     1.0085 H            1    LIG   0.0000
  21 H            4.9064    -1.1077     1.0111 H            1    LIG   0.0000
  22 H            6.1318     0.9452     1.0014 H            1    LIG   0.0000
  23 H            4.9665     3.0328     0.9891 H            1    LIG   0.0000
  24 H            1.6939     2.7066    -0.8068 H            1    LIG   0.0000
  25 H            1.9828     4.3115    -0.8939 H            1    LIG   0.0000
  26 H           -0.0743     4.8153     0.0405 H            1    LIG   0.0000
  27 H           -0.3783     3.6750    -1.0882 H            1    LIG   0.0000
  28 H           -0.1271     2.2165     2.7956 H            1    LIG   0.0000
  29 H            1.9921     3.1522     2.9980 H            1    LIG   0.0000
  30 H            1.2563     4.5084     2.4634 H            1    LIG   0.0000
@<TRIPOS>BOND
   1        1        2 1
   2        2        3 1
   3        3        4 ar
   4        4        5 ar
   5        5        6 ar
   6        6        7 ar
   7        7        8 ar
   8        8        3 ar
   9        8        9 1
  10        9       10 1
  11       10       11 1
  12       11       12 1
  13       12       13 2
  14       12       14 am
  15       14       15 1
  16       15        9 1
  17        9       16 1
  18        1       17 1
  19        1       18 1
  20        1       19 1
  21        4       20 1
  22        5       21 1
  23        6       22 1
  24        7       23 1
  25       10       24 1
  26       10       25 1
  27       11       26 1
  28       11       27 1
  29       14       28 1
  30       15       29 1
  31       15       30 1

@<TRIPOS>MOLECULE

  30   31
SMALL
USER_CHARGES
@<TRIPOS>ATOM
   1 C1           0.3887    -0.2817     1.0071 C.3          1    LIG   0.0000
   2 O2           1.0000     1.0000     1.0000 O.3          1    LIG   0.0000
   3 C3           2.3508     1.0000     1.0000 C.ar         1    LIG   0.0000
   4 C4           3.0284    -0.2142     1.0054 C.ar         1    LIG   0.0000
   5 C5           4.4191    -0.2345     1.0063 C.ar         1    LIG   0.0000
   6 C6           5.1319     0.9597     1.0006 C.ar         1    LIG   0.0000
   7 C7           4.4540     2.1742     0.9938 C.ar         1    LIG   0.0000
   8 C8           3.0635     2.1944     0.9934 C.ar         1    LIG   0.0000
   9 C9           2.3229     3.5215     0.9856 C.3          1    LIG   0.0000
  10 C10          1.5752     3.5987     2.3112 C.3          1    LIG   0.0000
  11 C11          1.8456     4.8679     3.1233 C.3          1    LIG   0.0000
  12 C12          3.3443     5.0881     3.1470 C.2          1    LIG   0.0000
  13 O13          3.9228     5.3616     4.1922 O.2          1    LIG   0.0000
  14 N14          4.0786     4.9603     1.9577 N.am         1    LIG   0.0000
  15 C15          3.3600     4.6009     0.7272 C.3          1    LIG   0.0000
  16 H            1.6600     3.5204     0.2370 H            1    LIG   0.0000
  17 H           -0.6058    -0.1766     1.0065 H            1    LIG   0.0000
  18 H            0.6707    -0.7900     0.1934 H            1    LIG   0.0000
  19 H            0.6707    -0.7809     1.8264 H            1    LIG   0.0000
  20 H            2.5158    -1.0728     1.0085 H            1    LIG   0.0000
  21 H            4.9064    -1.1077     1.0111 H            1    LIG   0.0000
  22 H            6.1318     0.9452     1.0014 H            1    LIG   0.0000
  23 H            4.9665     3.0328     0.9891 H            1    LIG   0.0000
  24 H            1.8420     2.8107     2.8661 H            1    LIG   0.0000
  25 H            0.5948     3.5545     2.1191 H            1    LIG   0.0000
  26 H            1.3932     5.6497     2.6944 H            1    LIG   0.0000
  27 H            1.5031     4.7550     4.0560 H            1    LIG   0.0000
  28 H            5.0672     5.1104     1.9479 H            1    LIG   0.0000
  29 H            4.0176     4.2654     0.0527 H            1    LIG   0.0000
  30 H            2.9009     5.4140     0.3693 H            1    LIG   0.0000
@<TRIPOS>BOND
   1        1        2 1
   2        2        3 1
   3        3        4 ar
   4        4        5 ar
   5        5        6 ar
   6        6        7 ar
   7        7        8 ar
   8        8        3 ar
   9        8        9 1
  10        9       10 1
  11       10       11 1
  12       11       12 1
  13       12       13 2
  14       12       14 am
  15       14       15 1
  16       15        9 1
  17        9       16 1
  18        1       17 1
  19        1       18 1
  20        1       19 1
  21        4       20 1
  22        5       21 1
  23        6       22 1
  24        7       23 1
  25       10       24 1
  26       10       25 1
  27       11       26 1
  28       11       27 1
  29       14       28 1
  30       15       29 1
  31       15       30 1

@<TRIPOS>MOLECULE

  30   31
SMALL
USER_CHARGES
@<TRIPOS>ATOM
   1 C1           0.3887    -0.2817     1.0071 C.3          1    LIG   0.0000
   2 O2           1.0000     1.0000     1.0000 O.3          1    LIG   0.0000
   3 C3           2.3508     1.0000     1.0000 C.ar         1    LIG   0.0000
   4 C4           3.0284    -0.1428     0.5898 C.ar         1    LIG   0.0000
   5 C5           4.4191    -0.1622     0.5837 C.ar         1    LIG   0.0000
   6 C6           5.1319     0.9619     0.9868 C.ar         1    LIG   0.0000
   7 C7           4.4540     2.1055     1.3957 C.ar         1    LIG   0.0000
   8 C8           3.0635     2.1246     1.4023 C.ar         1    LIG   0.0000
   9 C9           2.3227     3.3748     1.8490 C.3          1    LIG   0.0000
  10 C10          1.1949     3.0622     2.8230 C.3          1    LIG   0.0000
  11 C11          1.8084     2.3463     4.0157 C.3          1    LIG   0.0000
  12 C12          2.9910     3.0986     4.6126 C.2          1    LIG   0.0000
  13 O13          3.3513     2.8926     5.7598 O.2          1    LIG   0.0000
  14 N14          3.6809     4.0375     3.8412 N.am         1    LIG   0.0000
  15 C15          3.2656     4.3897     2.4727 C.3          1    LIG   0.0000
  16 H            1.9166     3.7947     1.0374 H            1    LIG   0.0000
  17 H           -0.6058    -0.1766     1.0065 H            1    LIG   0.0000
  18 H            0.6707    -0.7900     0.1934 H            1    LIG   0.0000
  19 H            0.6707    -0.7809     1.8264 H            1    LIG   0.0000
  20 H            2.5158    -0.9507     0.2991 H            1    LIG   0.0000
  21 H            4.9064    -0.9844     0.2895 H            1    LIG   0.0000
  22 H            6.1318     0.9480     0.9826 H            1    LIG   0.0000
  23 H            4.9665     2.9139     1.6851 H            1    LIG   0.0000
  24 H            0.5168     2.4736     2.3830 H            1    LIG   0.0000
  25 H            0.7567     3.9100     3.1218 H            1    LIG   0.0000
  26 H            1.1073     2.2423     4.7210 H            1    LIG   0.0000
  27 H            2.1206     1.4434     3.7202 H            1    LIG   0.0000
  28 H            4.4848     4.4859     4.2319 H            1    LIG   0.0000
  29 H            4.0830     4.4565     1.9005 H            1    LIG   0.0000
  30 H            2.8042     5.2764     2.4997 H            1    LIG   0.0000
@<TRIPOS>BOND
   1        1        2 1
   2        2        3 1
   3        3        4 ar
   4        4        5 ar
   5        5        6 ar
   6        6        7 ar
   7        7        8 ar
   8        8        3 ar
   9        8        9 1
  10        9       10 1
  11       10       11 1
  12       11       12 1
  13       12       13 2
  14       12       14 am
  15       14       15 1
  16       15        9 1
  17        9       16 1
  18        1       17 1
  19        1       18 1
  20        1       19 1
  21        4       20 1
  22        5       21 1
  23        6       22 1
  24        7       23 1
  25       10       24 1
  26       10       25 1
  27       11       26 1
  28       11       27 1
  29       14       28 1
  30       15       29 1
  31       15       30 1

@<TRIPOS>MOLECULE

  30   31
SMALL
USER_CHARGES
@<TRIPOS>ATOM
   1 C1           0.3887    -0.2817     1.0071 C.3          1    LIG   0.0000
   2 O2           1.0000     1.0000     1.0000 O.3          1    LIG   0.0000
   3 C3           2.3508     1.0000     1.0000 C.ar         1    LIG   0.0000
   4 C4           3.0284    -0.1391     1.4203 C.ar         1    LIG   0.0000
   5 C5           4.4191    -0.1579     1.4281 C.ar         1    LIG   0.0000
   6 C6           5.1319     0.9624     1.0143 C.ar         1    LIG   0.0000
   7 C7           4.4540     2.1012     0.5926 C.ar         1    LIG   0.0000
   8 C8           3.0635     2.1201     0.5853 C.ar         1    LIG   0.0000
   9 C9           2.3227     3.3649     0.1239 C.3          1    LIG   0.0000
  10 C10          1.5512     4.0317     1.2546 C.3          1    LIG   0.0000
  11 C11          2.5510     4.3755     2.3472 C.3          1    LIG   0.0000
  12 C12          3.7481     5.1612     1.8273 C.2          1    LIG   0.0000
  13 O13          4.4302     5.8367     2.5802 O.2          1    LIG   0.0000
  14 N14          4.0789     5.1108     0.4707 N.am         1    LIG   0.0000
  15 C15          3.2657     4.3728    -0.5108 C.3          1    LIG   0.0000
  16 H            1.6617     3.0855    -0.5725 H            1    LIG   0.0000
  17 H           -0.6058    -0.1766     1.0065 H            1    LIG   0.0000
  18 H            0.6707    -0.7900     0.1934 H            1    LIG   0.0000
  19 H            0.6707    -0.7809     1.8264 H            1    LIG   0.0000
  20 H            2.5158    -0.9449     1.7170 H            1    LIG   0.0000
  21 H            4.9064    -0.9768     1.7313 H            1    LIG   0.0000
  22 H            6.1318     0.9490     1.0201 H            1    LIG   0.0000
  23 H            4.9665     2.9065     0.2945 H            1    LIG   0.0000
  24 H            0.8577     3.4055     1.6108 H            1    LIG   0.0000
  25 H            1.1089     4.8645     0.9218 H            1    LIG   0.0000
  26 H            2.0873     4.9235     3.0434 H            1    LIG   0.0000
  27 H            2.8808     3.5253     2.7574 H            1    LIG   0.0000
  28 H            4.8965     5.5926     0.1552 H            1    LIG   0.0000
  29 H            3.8812     3.8850    -1.1299 H            1    LIG   0.0000
  30 H            2.7223     5.0313    -1.0315 H            1    LIG   0.0000
@<TRIPOS>BOND
   1        1        2 1
   2        2        3 1
   3        3        4 ar
   4        4        5 ar
   5        5        6 ar
   6        6        7 ar
   7        7        8 ar
   8        8        3 ar
   9        8        9 1
  10        9       10 1
  11       10       11 1
  12       11       12 1
  13       12       13 2
  14       12       14 am
  15       14       15 1
  16       15        9 1
  17        9       16 1
  18        1       17 1
  19        1       18 1
  20        1       19 1
  21        4       20 1
  22        5       21 1
  23        6       22 1
  24        7       23 1
  25       10       24 1
  26       10       25 1
  27       11       26 1
  28       11       27 1
  29       14       28 1
  30       15       29 1
  31       15       30 1

