@<TRIPOS>MOLECULE
*****
 30 31 0 0 0
SMALL
USER_CHARGES

@<TRIPOS>ATOM
      1 C1          0.3887   -0.2817    1.0071 C.3     1  LIG1        0.0000
      2 O2          1.0000    1.0000    1.0000 O.2     1  LIG1        0.0000
      3 C3          2.3508    1.0000    1.0000 C.3     1  LIG1        0.0000
      4 C4          3.0284   -0.1391    1.4203 C.3     1  LIG1        0.0000
      5 C5          4.4191   -0.1579    1.4281 C.3     1  LIG1        0.0000
      6 C6          5.1319    0.9624    1.0143 C.3     1  LIG1        0.0000
      7 C7          4.4540    2.1012    0.5926 C.3     1  LIG1        0.0000
      8 C8          3.0635    2.1201    0.5853 C.3     1  LIG1        0.0000
      9 C9          2.3227    3.3649    0.1239 C.3     1  LIG1        0.0000
     10 C10         1.5512    4.0317    1.2546 C.3     1  LIG1        0.0000
     11 C11         2.5510    4.3755    2.3472 C.3     1  LIG1        0.0000
     12 C12         3.7481    5.1612    1.8273 C.2     1  LIG1        0.0000
     13 O13         4.4302    5.8367    2.5802 O.2     1  LIG1        0.0000
     14 N14         4.0789    5.1108    0.4707 N.am    1  LIG1        0.0000
     15 C15         3.2657    4.3728   -0.5108 C.3     1  LIG1        0.0000
     16 H           1.6617    3.0855   -0.5725 H       1  LIG1        0.0000
     17 H          -0.6058   -0.1766    1.0065 H       1  LIG1        0.0000
     18 H           0.6707   -0.7900    0.1934 H       1  LIG1        0.0000
     19 H           0.6707   -0.7809    1.8264 H       1  LIG1        0.0000
     20 H           2.5158   -0.9449    1.7170 H       1  LIG1        0.0000
     21 H           4.9064   -0.9768    1.7313 H       1  LIG1        0.0000
     22 H           6.1318    0.9490    1.0201 H       1  LIG1        0.0000
     23 H           4.9665    2.9065    0.2945 H       1  LIG1        0.0000
     24 H           0.8577    3.4055    1.6108 H       1  LIG1        0.0000
     25 H           1.1089    4.8645    0.9218 H       1  LIG1        0.0000
     26 H           2.0873    4.9235    3.0434 H       1  LIG1        0.0000
     27 H           2.8808    3.5253    2.7574 H       1  LIG1        0.0000
     28 H           4.8965    5.5926    0.1552 H       1  LIG1        0.0000
     29 H           3.8812    3.8850   -1.1299 H       1  LIG1        0.0000
     30 H           2.7223    5.0313   -1.0315 H       1  LIG1        0.0000
@<TRIPOS>BOND
     1     1     2    1
     2     2     3    1
     3     3     4   ar
     4     4     5   ar
     5     5     6   ar
     6     6     7   ar
     7     7     8   ar
     8     8     3   ar
     9     8     9    1
    10     9    10    1
    11    10    11    1
    12    11    12    1
    13    12    13    2
    14    12    14   am
    15    14    15    1
    16    15     9    1
    17     9    16    1
    18     1    17    1
    19     1    18    1
    20     1    19    1
    21     4    20    1
    22     5    21    1
    23     6    22    1
    24     7    23    1
    25    10    24    1
    26    10    25    1
    27    11    26    1
    28    11    27    1
    29    14    28    1
    30    15    29    1
    31    15    30    1
