@<TRIPOS>MOLECULE
*****
 30 31 0 0 0
SMALL
USER_CHARGES

@<TRIPOS>ATOM
      1 C1          0.3887   -0.2817    1.0071 C.3     1  LIG1        0.0000
      2 O2          1.0000    1.0000    1.0000 O.2     1  LIG1        0.0000
      3 C3          2.3508    1.0000    1.0000 C.3     1  LIG1        0.0000
      4 C4          3.0284   -0.1428    0.5898 C.3     1  LIG1        0.0000
      5 C5          4.4191   -0.1622    0.5837 C.3     1  LIG1        0.0000
      6 C6          5.1319    0.9619    0.9868 C.3     1  LIG1        0.0000
      7 C7          4.4540    2.1055    1.3957 C.3     1  LIG1        0.0000
      8 C8          3.0635    2.1246    1.4023 C.3     1  LIG1        0.0000
      9 C9          2.3227    3.3748    1.8490 C.3     1  LIG1        0.0000
     10 C10         1.1949    3.0622    2.8230 C.3     1  LIG1        0.0000
     11 C11         1.8084    2.3463    4.0157 C.3     1  LIG1        0.0000
     12 C12         2.9910    3.0986    4.6126 C.2     1  LIG1        0.0000
     13 O13         3.3513    2.8926    5.7598 O.2     1  LIG1        0.0000
     14 N14         3.6809    4.0375    3.8412 N.am    1  LIG1        0.0000
     15 C15         3.2656    4.3897    2.4727 C.3     1  LIG1        0.0000
     16 H           1.9166    3.7947    1.0374 H       1  LIG1        0.0000
     17 H          -0.6058   -0.1766    1.0065 H       1  LIG1        0.0000
     18 H           0.6707   -0.7900    0.1934 H       1  LIG1        0.0000
     19 H           0.6707   -0.7809    1.8264 H       1  LIG1        0.0000
     20 H           2.5158   -0.9507    0.2991 H       1  LIG1        0.0000
     21 H           4.9064   -0.9844    0.2895 H       1  LIG1        0.0000
     22 H           6.1318    0.9480    0.9826 H       1  LIG1        0.0000
     23 H           4.9665    2.9139    1.6851 H       1  LIG1        0.0000
     24 H           0.5168    2.4736    2.3830 H       1  LIG1        0.0000
     25 H           0.7567    3.9100    3.1218 H       1  LIG1        0.0000
     26 H           1.1073    2.2423    4.7210 H       1  LIG1        0.0000
     27 H           2.1206    1.4434    3.7202 H       1  LIG1        0.0000
     28 H           4.4848    4.4859    4.2319 H       1  LIG1        0.0000
     29 H           4.0830    4.4565    1.9005 H       1  LIG1        0.0000
     30 H           2.8042    5.2764    2.4997 H       1  LIG1        0.0000
@<TRIPOS>BOND
     1     1     2    1
     2     2     3    1
     3     3     4   ar
     4     4     5   ar
     5     5     6   ar
     6     6     7   ar
     7     7     8   ar
     8     8     3   ar
     9     8     9    1
    10     9    10    1
    11    10    11    1
    12    11    12    1
    13    12    13    2
    14    12    14   am
    15    14    15    1
    16    15     9    1
    17     9    16    1
    18     1    17    1
    19     1    18    1
    20     1    19    1
    21     4    20    1
    22     5    21    1
    23     6    22    1
    24     7    23    1
    25    10    24    1
    26    10    25    1
    27    11    26    1
    28    11    27    1
    29    14    28    1
    30    15    29    1
    31    15    30    1
