@<TRIPOS>MOLECULE
*****
 30 31 0 0 0
SMALL
USER_CHARGES

@<TRIPOS>ATOM
      1 C1          0.3887   -0.2817    1.0071 C.3     1  LIG1        0.0000
      2 O2          1.0000    1.0000    1.0000 O.2     1  LIG1        0.0000
      3 C3          2.3508    1.0000    1.0000 C.3     1  LIG1        0.0000
      4 C4          3.0284   -0.2142    1.0054 C.3     1  LIG1        0.0000
      5 C5          4.4191   -0.2345    1.0063 C.3     1  LIG1        0.0000
      6 C6          5.1319    0.9597    1.0006 C.3     1  LIG1        0.0000
      7 C7          4.4540    2.1742    0.9938 C.3     1  LIG1        0.0000
      8 C8          3.0635    2.1944    0.9934 C.3     1  LIG1        0.0000
      9 C9          2.3227    3.5219    0.9856 C.3     1  LIG1        0.0000
     10 C10         2.5903    4.3414    2.2406 C.3     1  LIG1        0.0000
     11 C11         4.0916    4.5646    2.3273 C.3     1  LIG1        0.0000
     12 C12         4.6798    5.1347    1.0428 C.2     1  LIG1        0.0000
     13 O13         5.7488    5.7224    1.0490 O.2     1  LIG1        0.0000
     14 N14         3.9934    4.9840   -0.1649 N.am    1  LIG1        0.0000
     15 C15         2.6678    4.3468   -0.2426 C.3     1  LIG1        0.0000
     16 H           1.3430    3.3239    0.9542 H       1  LIG1        0.0000
     17 H          -0.6058   -0.1766    1.0065 H       1  LIG1        0.0000
     18 H           0.6707   -0.7900    0.1934 H       1  LIG1        0.0000
     19 H           0.6707   -0.7809    1.8264 H       1  LIG1        0.0000
     20 H           2.5158   -1.0728    1.0085 H       1  LIG1        0.0000
     21 H           4.9064   -1.1077    1.0111 H       1  LIG1        0.0000
     22 H           6.1318    0.9452    1.0014 H       1  LIG1        0.0000
     23 H           4.9665    3.0328    0.9891 H       1  LIG1        0.0000
     24 H           2.2716    3.8444    3.0477 H       1  LIG1        0.0000
     25 H           2.1170    5.2204    2.1821 H       1  LIG1        0.0000
     26 H           4.2770    5.2031    3.0743 H       1  LIG1        0.0000
     27 H           4.5341    3.6887    2.5199 H       1  LIG1        0.0000
     28 H           4.4170    5.3207   -1.0059 H       1  LIG1        0.0000
     29 H           2.6508    3.7468   -1.0425 H       1  LIG1        0.0000
     30 H           1.9775    5.0626   -0.3481 H       1  LIG1        0.0000
@<TRIPOS>BOND
     1     1     2    1
     2     2     3    1
     3     3     4   ar
     4     4     5   ar
     5     5     6   ar
     6     6     7   ar
     7     7     8   ar
     8     8     3   ar
     9     8     9    1
    10     9    10    1
    11    10    11    1
    12    11    12    1
    13    12    13    2
    14    12    14   am
    15    14    15    1
    16    15     9    1
    17     9    16    1
    18     1    17    1
    19     1    18    1
    20     1    19    1
    21     4    20    1
    22     5    21    1
    23     6    22    1
    24     7    23    1
    25    10    24    1
    26    10    25    1
    27    11    26    1
    28    11    27    1
    29    14    28    1
    30    15    29    1
    31    15    30    1
