@<TRIPOS>MOLECULE
*****
 30 31 0 0 0
SMALL
USER_CHARGES

@<TRIPOS>ATOM
      1 C1          0.3887   -0.2817    1.0071 C.3     1  LIG1        0.0000
      2 O2          1.0000    1.0000    1.0000 O.2     1  LIG1        0.0000
      3 C3          2.3508    1.0000    1.0000 C.3     1  LIG1        0.0000
      4 C4          3.0284   -0.2142    1.0054 C.3     1  LIG1        0.0000
      5 C5          4.4191   -0.2345    1.0063 C.3     1  LIG1        0.0000
      6 C6          5.1319    0.9597    1.0006 C.3     1  LIG1        0.0000
      7 C7          4.4540    2.1742    0.9938 C.3     1  LIG1        0.0000
      8 C8          3.0635    2.1944    0.9934 C.3     1  LIG1        0.0000
      9 C9          2.3230    3.5214    0.9856 C.3     1  LIG1        0.0000
     10 C10         1.4744    3.6768    2.2338 C.3     1  LIG1        0.0000
     11 C11         0.5757    4.8767    1.9971 C.3     1  LIG1        0.0000
     12 C12         1.3847    6.1131    1.6434 C.2     1  LIG1        0.0000
     13 O13         0.9195    7.2319    1.7919 O.2     1  LIG1        0.0000
     14 N14         2.6856    5.9763    1.1392 N.am    1  LIG1        0.0000
     15 C15         3.3270    4.6629    0.9794 C.3     1  LIG1        0.0000
     16 H           1.7421    3.5787    0.1736 H       1  LIG1        0.0000
     17 H          -0.6058   -0.1766    1.0065 H       1  LIG1        0.0000
     18 H           0.6707   -0.7900    0.1934 H       1  LIG1        0.0000
     19 H           0.6707   -0.7809    1.8264 H       1  LIG1        0.0000
     20 H           2.5158   -1.0728    1.0085 H       1  LIG1        0.0000
     21 H           4.9064   -1.1077    1.0111 H       1  LIG1        0.0000
     22 H           6.1318    0.9452    1.0014 H       1  LIG1        0.0000
     23 H           4.9665    3.0328    0.9891 H       1  LIG1        0.0000
     24 H           2.0577    3.8339    3.0308 H       1  LIG1        0.0000
     25 H           0.9229    2.8558    2.3811 H       1  LIG1        0.0000
     26 H          -0.0502    4.6712    1.2448 H       1  LIG1        0.0000
     27 H           0.0498    5.0585    2.8280 H       1  LIG1        0.0000
     28 H           3.1934    6.7978    0.8800 H       1  LIG1        0.0000
     29 H           3.9720    4.5271    1.7314 H       1  LIG1        0.0000
     30 H           3.8213    4.6508    0.1101 H       1  LIG1        0.0000
@<TRIPOS>BOND
     1     1     2    1
     2     2     3    1
     3     3     4   ar
     4     4     5   ar
     5     5     6   ar
     6     6     7   ar
     7     7     8   ar
     8     8     3   ar
     9     8     9    1
    10     9    10    1
    11    10    11    1
    12    11    12    1
    13    12    13    2
    14    12    14   am
    15    14    15    1
    16    15     9    1
    17     9    16    1
    18     1    17    1
    19     1    18    1
    20     1    19    1
    21     4    20    1
    22     5    21    1
    23     6    22    1
    24     7    23    1
    25    10    24    1
    26    10    25    1
    27    11    26    1
    28    11    27    1
    29    14    28    1
    30    15    29    1
    31    15    30    1
