@<TRIPOS>MOLECULE

  30   32
SMALL
USER_CHARGES
@<TRIPOS>ATOM
   1 C1           1.1884     3.6149     0.0117 C.3          1    LIG   0.0000
   2 C2           1.1696     2.0946     0.0034 C.ar         1    LIG   0.0000
   3 C3           2.3827     1.4137    -0.0112 C.ar         1    LIG   0.0000
   4 C4           2.3993     0.0227    -0.0192 C.ar         1    LIG   0.0000
   5 C5           1.2026    -0.6875    -0.0135 C.ar         1    LIG   0.0000
   6 C6          -0.0103    -0.0067     0.0011 C.ar         1    LIG   0.0000
   7 C7          -0.0276     1.3836     0.0095 C.ar         1    LIG   0.0000
   8 C8          -1.3089     2.0593     0.0243 C.ar         1    LIG   0.0000
   9 C9          -2.1257     1.9095     1.1405 C.ar         1    LIG   0.0000
  10 C10         -3.3571     2.5555     1.1818 C.ar         1    LIG   0.0000
  11 C11         -3.7651     3.3458     0.1127 C.ar         1    LIG   0.0000
  12 C12         -2.9196     3.4714    -0.9850 C.ar         1    LIG   0.0000
  13 C13         -1.6900     2.8398    -1.0646 C.ar         1    LIG   0.0000
  14 C14         -1.0572     3.2119    -2.3917 C.3          1    LIG   0.0000
  15 N15         -2.0303     4.0777    -3.0574 N.am         1    LIG   0.0000
  16 C16         -3.1183     4.2188    -2.1987 C.2          1    LIG   0.0000
  17 O17         -4.1057     4.8972    -2.4441 O.2          1    LIG   0.0000
  18 H            2.1352     3.9366     0.0055 H            1    LIG   0.0000
  19 H            0.7143     3.9585    -0.7989 H            1    LIG   0.0000
  20 H            0.7280     3.9494     0.8340 H            1    LIG   0.0000
  21 H            3.2426     1.9242    -0.0158 H            1    LIG   0.0000
  22 H            3.2712    -0.4668    -0.0291 H            1    LIG   0.0000
  23 H            1.2146    -1.6874    -0.0199 H            1    LIG   0.0000
  24 H           -0.8701    -0.5173     0.0057 H            1    LIG   0.0000
  25 H           -1.8295     1.3411     1.9081 H            1    LIG   0.0000
  26 H           -3.9493     2.4515     1.9808 H            1    LIG   0.0000
  27 H           -4.6484     3.8143     0.1324 H            1    LIG   0.0000
  28 H           -0.1973     3.7007    -2.2443 H            1    LIG   0.0000
  29 H           -0.8854     2.3929    -2.9392 H            1    LIG   0.0000
  30 H           -1.9326     4.4920    -3.9623 H            1    LIG   0.0000
@<TRIPOS>BOND
   1        1        2 1
   2        2        3 ar
   3        3        4 ar
   4        4        5 ar
   5        5        6 ar
   6        6        7 ar
   7        7        2 ar
   8        7        8 1
   9        8        9 ar
  10        9       10 ar
  11       10       11 ar
  12       11       12 ar
  13       12       13 ar
  14       13        8 ar
  15       13       14 1
  16       14       15 1
  17       15       16 am
  18       16       12 1
  19       16       17 2
  20        1       18 1
  21        1       19 1
  22        1       20 1
  23        3       21 1
  24        4       22 1
  25        5       23 1
  26        6       24 1
  27        9       25 1
  28       10       26 1
  29       11       27 1
  30       14       28 1
  31       14       29 1
  32       15       30 1

@<TRIPOS>MOLECULE

  30   32
SMALL
USER_CHARGES
@<TRIPOS>ATOM
   1 C1           1.1884     3.6149     0.0117 C.3          1    LIG   0.0000
   2 C2           1.1696     2.0946     0.0034 C.ar         1    LIG   0.0000
   3 C3           2.3827     1.4137    -0.0112 C.ar         1    LIG   0.0000
   4 C4           2.3993     0.0227    -0.0192 C.ar         1    LIG   0.0000
   5 C5           1.2026    -0.6875    -0.0135 C.ar         1    LIG   0.0000
   6 C6          -0.0103    -0.0067     0.0011 C.ar         1    LIG   0.0000
   7 C7          -0.0276     1.3836     0.0095 C.ar         1    LIG   0.0000
   8 C8          -1.3089     2.0593     0.0243 C.ar         1    LIG   0.0000
   9 C9          -1.9332     2.2720     1.2492 C.ar         1    LIG   0.0000
  10 C10         -3.1603     2.9264     1.2899 C.ar         1    LIG   0.0000
  11 C11         -3.7554     3.3643     0.1117 C.ar         1    LIG   0.0000
  12 C12         -3.0990     3.1336    -1.0931 C.ar         1    LIG   0.0000
  13 C13         -1.8803     2.4814    -1.1738 C.ar         1    LIG   0.0000
  14 C14         -1.4773     2.4206    -2.6346 C.3          1    LIG   0.0000
  15 N15         -2.5680     3.0647    -3.3662 N.am         1    LIG   0.0000
  16 C16         -3.5092     3.4825    -2.4277 C.2          1    LIG   0.0000
  17 O17         -4.5420     4.0756    -2.7053 O.2          1    LIG   0.0000
  18 H            2.1352     3.9366     0.0055 H            1    LIG   0.0000
  19 H            0.7143     3.9585    -0.7989 H            1    LIG   0.0000
  20 H            0.7280     3.9494     0.8340 H            1    LIG   0.0000
  21 H            3.2426     1.9242    -0.0158 H            1    LIG   0.0000
  22 H            3.2712    -0.4668    -0.0291 H            1    LIG   0.0000
  23 H            1.2146    -1.6874    -0.0199 H            1    LIG   0.0000
  24 H           -0.8701    -0.5173     0.0057 H            1    LIG   0.0000
  25 H           -1.5028     1.9566     2.0949 H            1    LIG   0.0000
  26 H           -3.6148     3.0819     2.1670 H            1    LIG   0.0000
  27 H           -4.6372     3.8356     0.1301 H            1    LIG   0.0000
  28 H           -0.6191     2.9126    -2.7815 H            1    LIG   0.0000
  29 H           -1.3716     1.4708    -2.9291 H            1    LIG   0.0000
  30 H           -2.6272     3.1834    -4.3573 H            1    LIG   0.0000
@<TRIPOS>BOND
   1        1        2 1
   2        2        3 ar
   3        3        4 ar
   4        4        5 ar
   5        5        6 ar
   6        6        7 ar
   7        7        2 ar
   8        7        8 1
   9        8        9 ar
  10        9       10 ar
  11       10       11 ar
  12       11       12 ar
  13       12       13 ar
  14       13        8 ar
  15       13       14 1
  16       14       15 1
  17       15       16 am
  18       16       12 1
  19       16       17 2
  20        1       18 1
  21        1       19 1
  22        1       20 1
  23        3       21 1
  24        4       22 1
  25        5       23 1
  26        6       24 1
  27        9       25 1
  28       10       26 1
  29       11       27 1
  30       14       28 1
  31       14       29 1
  32       15       30 1

@<TRIPOS>MOLECULE

  30   32
SMALL
USER_CHARGES
@<TRIPOS>ATOM
   1 C1           1.1884     3.6149     0.0117 C.3          1    LIG   0.0000
   2 C2           1.1696     2.0946     0.0034 C.ar         1    LIG   0.0000
   3 C3           2.3827     1.4137    -0.0112 C.ar         1    LIG   0.0000
   4 C4           2.3993     0.0227    -0.0192 C.ar         1    LIG   0.0000
   5 C5           1.2026    -0.6875    -0.0135 C.ar         1    LIG   0.0000
   6 C6          -0.0103    -0.0067     0.0011 C.ar         1    LIG   0.0000
   7 C7          -0.0276     1.3836     0.0095 C.ar         1    LIG   0.0000
   8 C8          -1.3089     2.0593     0.0243 C.ar         1    LIG   0.0000
   9 C9          -2.1487     1.9145    -1.0753 C.ar         1    LIG   0.0000
  10 C10         -3.3880     2.5467    -1.0808 C.ar         1    LIG   0.0000
  11 C11         -3.7816     3.3169     0.0082 C.ar         1    LIG   0.0000
  12 C12         -2.9140     3.4365     1.0892 C.ar         1    LIG   0.0000
  13 C13         -1.6713     2.8271     1.1285 C.ar         1    LIG   0.0000
  14 C14         -1.0201     3.1757     2.4531 C.3          1    LIG   0.0000
  15 N15         -1.9775     4.0417     3.1411 N.am         1    LIG   0.0000
  16 C16         -3.0906     4.1723     2.3135 C.2          1    LIG   0.0000
  17 O17         -4.0880     4.8200     2.5980 O.2          1    LIG   0.0000
  18 H            2.1352     3.9366     0.0055 H            1    LIG   0.0000
  19 H            0.7143     3.9585    -0.7989 H            1    LIG   0.0000
  20 H            0.7280     3.9494     0.8340 H            1    LIG   0.0000
  21 H            3.2426     1.9242    -0.0158 H            1    LIG   0.0000
  22 H            3.2712    -0.4668    -0.0291 H            1    LIG   0.0000
  23 H            1.2146    -1.6874    -0.0199 H            1    LIG   0.0000
  24 H           -0.8701    -0.5173     0.0057 H            1    LIG   0.0000
  25 H           -1.8634     1.3596    -1.8568 H            1    LIG   0.0000
  26 H           -3.9961     2.4473    -1.8683 H            1    LIG   0.0000
  27 H           -4.6702     3.7755     0.0142 H            1    LIG   0.0000
  28 H           -0.8500     2.3480     2.9878 H            1    LIG   0.0000
  29 H           -0.1574     3.6584     2.3024 H            1    LIG   0.0000
  30 H           -1.8554     4.4625     4.0400 H            1    LIG   0.0000
@<TRIPOS>BOND
   1        1        2 1
   2        2        3 ar
   3        3        4 ar
   4        4        5 ar
   5        5        6 ar
   6        6        7 ar
   7        7        2 ar
   8        7        8 1
   9        8        9 ar
  10        9       10 ar
  11       10       11 ar
  12       11       12 ar
  13       12       13 ar
  14       13        8 ar
  15       13       14 1
  16       14       15 1
  17       15       16 am
  18       16       12 1
  19       16       17 2
  20        1       18 1
  21        1       19 1
  22        1       20 1
  23        3       21 1
  24        4       22 1
  25        5       23 1
  26        6       24 1
  27        9       25 1
  28       10       26 1
  29       11       27 1
  30       14       28 1
  31       14       29 1
  32       15       30 1

@<TRIPOS>MOLECULE

  30   32
SMALL
USER_CHARGES
@<TRIPOS>ATOM
   1 C1           1.1884     3.6149     0.0117 C.3          1    LIG   0.0000
   2 C2           1.1696     2.0946     0.0034 C.ar         1    LIG   0.0000
   3 C3           2.3827     1.4137    -0.0112 C.ar         1    LIG   0.0000
   4 C4           2.3993     0.0227    -0.0192 C.ar         1    LIG   0.0000
   5 C5           1.2026    -0.6875    -0.0135 C.ar         1    LIG   0.0000
   6 C6          -0.0103    -0.0067     0.0011 C.ar         1    LIG   0.0000
   7 C7          -0.0276     1.3836     0.0095 C.ar         1    LIG   0.0000
   8 C8          -1.3089     2.0593     0.0243 C.ar         1    LIG   0.0000
   9 C9          -1.9585     2.2775    -1.1864 C.ar         1    LIG   0.0000
  10 C10         -3.1942     2.9167    -1.1971 C.ar         1    LIG   0.0000
  11 C11         -3.7734     3.3326    -0.0031 C.ar         1    LIG   0.0000
  12 C12         -3.0928     3.0952     1.1868 C.ar         1    LIG   0.0000
  13 C13         -1.8597     2.4674     1.2368 C.ar         1    LIG   0.0000
  14 C14         -1.4366     2.3808     2.6906 C.3          1    LIG   0.0000
  15 N15         -2.5100     3.0251     3.4472 N.am         1    LIG   0.0000
  16 C16         -3.4788     3.4313     2.5320 C.2          1    LIG   0.0000
  17 O17         -4.5225     3.9908     2.8369 O.2          1    LIG   0.0000
  18 H            2.1352     3.9366     0.0055 H            1    LIG   0.0000
  19 H            0.7143     3.9585    -0.7989 H            1    LIG   0.0000
  20 H            0.7280     3.9494     0.8340 H            1    LIG   0.0000
  21 H            3.2426     1.9242    -0.0158 H            1    LIG   0.0000
  22 H            3.2712    -0.4668    -0.0291 H            1    LIG   0.0000
  23 H            1.2146    -1.6874    -0.0199 H            1    LIG   0.0000
  24 H           -0.8701    -0.5173     0.0057 H            1    LIG   0.0000
  25 H           -1.5401     1.9768    -2.0434 H            1    LIG   0.0000
  26 H           -3.6662     3.0773    -2.0639 H            1    LIG   0.0000
  27 H           -4.6611     3.7930     0.0001 H            1    LIG   0.0000
  28 H           -1.3366     1.4257     2.9695 H            1    LIG   0.0000
  29 H           -0.5713     2.8618     2.8323 H            1    LIG   0.0000
  30 H           -2.5425     3.1509     4.4387 H            1    LIG   0.0000
@<TRIPOS>BOND
   1        1        2 1
   2        2        3 ar
   3        3        4 ar
   4        4        5 ar
   5        5        6 ar
   6        6        7 ar
   7        7        2 ar
   8        7        8 1
   9        8        9 ar
  10        9       10 ar
  11       10       11 ar
  12       11       12 ar
  13       12       13 ar
  14       13        8 ar
  15       13       14 1
  16       14       15 1
  17       15       16 am
  18       16       12 1
  19       16       17 2
  20        1       18 1
  21        1       19 1
  22        1       20 1
  23        3       21 1
  24        4       22 1
  25        5       23 1
  26        6       24 1
  27        9       25 1
  28       10       26 1
  29       11       27 1
  30       14       28 1
  31       14       29 1
  32       15       30 1

@<TRIPOS>MOLECULE

  30   32
SMALL
USER_CHARGES
@<TRIPOS>ATOM
   1 C1           1.1884     3.6149     0.0117 C.3          1    LIG   0.0000
   2 C2           1.1696     2.0946     0.0034 C.ar         1    LIG   0.0000
   3 C3           2.3827     1.4137    -0.0112 C.ar         1    LIG   0.0000
   4 C4           2.3993     0.0227    -0.0192 C.ar         1    LIG   0.0000
   5 C5           1.2026    -0.6875    -0.0135 C.ar         1    LIG   0.0000
   6 C6          -0.0103    -0.0067     0.0011 C.ar         1    LIG   0.0000
   7 C7          -0.0276     1.3836     0.0095 C.ar         1    LIG   0.0000
   8 C8          -1.3089     2.0593     0.0243 C.ar         1    LIG   0.0000
   9 C9          -1.6221     2.9121    -1.0293 C.ar         1    LIG   0.0000
  10 C10         -2.8502     3.5657    -1.0418 C.ar         1    LIG   0.0000
  11 C11         -3.7566     3.3647    -0.0063 C.ar         1    LIG   0.0000
  12 C12         -3.4067     2.5034     1.0287 C.ar         1    LIG   0.0000
  13 C13         -2.1924     1.8399     1.0785 C.ar         1    LIG   0.0000
  14 C14         -2.1713     0.9952     2.3379 C.3          1    LIG   0.0000
  15 N15         -3.4504     1.2516     2.9997 N.am         1    LIG   0.0000
  16 C16         -4.1627     2.1417     2.1988 C.2          1    LIG   0.0000
  17 O17         -5.2858     2.5516     2.4554 O.2          1    LIG   0.0000
  18 H            2.1352     3.9366     0.0055 H            1    LIG   0.0000
  19 H            0.7143     3.9585    -0.7989 H            1    LIG   0.0000
  20 H            0.7280     3.9494     0.8340 H            1    LIG   0.0000
  21 H            3.2426     1.9242    -0.0158 H            1    LIG   0.0000
  22 H            3.2712    -0.4668    -0.0291 H            1    LIG   0.0000
  23 H            1.2146    -1.6874    -0.0199 H            1    LIG   0.0000
  24 H           -0.8701    -0.5173     0.0057 H            1    LIG   0.0000
  25 H           -0.9687     3.0543    -1.7729 H            1    LIG   0.0000
  26 H           -3.0813     4.1806    -1.7958 H            1    LIG   0.0000
  27 H           -4.6418     3.8298    -0.0058 H            1    LIG   0.0000
  28 H           -2.0847     0.0260     2.1076 H            1    LIG   0.0000
  29 H           -1.4114     1.2667     2.9285 H            1    LIG   0.0000
  30 H           -3.7572     0.8600     3.8672 H            1    LIG   0.0000
@<TRIPOS>BOND
   1        1        2 1
   2        2        3 ar
   3        3        4 ar
   4        4        5 ar
   5        5        6 ar
   6        6        7 ar
   7        7        2 ar
   8        7        8 1
   9        8        9 ar
  10        9       10 ar
  11       10       11 ar
  12       11       12 ar
  13       12       13 ar
  14       13        8 ar
  15       13       14 1
  16       14       15 1
  17       15       16 am
  18       16       12 1
  19       16       17 2
  20        1       18 1
  21        1       19 1
  22        1       20 1
  23        3       21 1
  24        4       22 1
  25        5       23 1
  26        6       24 1
  27        9       25 1
  28       10       26 1
  29       11       27 1
  30       14       28 1
  31       14       29 1
  32       15       30 1

@<TRIPOS>MOLECULE

  30   32
SMALL
USER_CHARGES
@<TRIPOS>ATOM
   1 C1           1.1884     3.6149     0.0117 C.3          1    LIG   0.0000
   2 C2           1.1696     2.0946     0.0034 C.ar         1    LIG   0.0000
   3 C3           2.3827     1.4137    -0.0112 C.ar         1    LIG   0.0000
   4 C4           2.3993     0.0227    -0.0192 C.ar         1    LIG   0.0000
   5 C5           1.2026    -0.6875    -0.0135 C.ar         1    LIG   0.0000
   6 C6          -0.0103    -0.0067     0.0011 C.ar         1    LIG   0.0000
   7 C7          -0.0276     1.3836     0.0095 C.ar         1    LIG   0.0000
   8 C8          -1.3089     2.0593     0.0243 C.ar         1    LIG   0.0000
   9 C9          -1.8097     2.5595    -1.1734 C.ar         1    LIG   0.0000
  10 C10         -3.0422     3.2048    -1.1860 C.ar         1    LIG   0.0000
  11 C11         -3.7664     3.3461    -0.0072 C.ar         1    LIG   0.0000
  12 C12         -3.2321     2.8314     1.1697 C.ar         1    LIG   0.0000
  13 C13         -2.0070     2.1884     1.2226 C.ar         1    LIG   0.0000
  14 C14         -1.7620     1.7644     2.6580 C.3          1    LIG   0.0000
  15 N15         -2.9264     2.2364     3.4072 N.am         1    LIG   0.0000
  16 C16         -3.7818     2.8573     2.4996 C.2          1    LIG   0.0000
  17 O17         -4.8611     3.3495     2.7966 O.2          1    LIG   0.0000
  18 H            2.1352     3.9366     0.0055 H            1    LIG   0.0000
  19 H            0.7143     3.9585    -0.7989 H            1    LIG   0.0000
  20 H            0.7280     3.9494     0.8340 H            1    LIG   0.0000
  21 H            3.2426     1.9242    -0.0158 H            1    LIG   0.0000
  22 H            3.2712    -0.4668    -0.0291 H            1    LIG   0.0000
  23 H            1.2146    -1.6874    -0.0199 H            1    LIG   0.0000
  24 H           -0.8701    -0.5173     0.0057 H            1    LIG   0.0000
  25 H           -1.2871     2.4559    -2.0197 H            1    LIG   0.0000
  26 H           -3.4076     3.5672    -2.0434 H            1    LIG   0.0000
  27 H           -4.6531     3.8083    -0.0055 H            1    LIG   0.0000
  28 H           -1.6856     0.7693     2.7207 H            1    LIG   0.0000
  29 H           -0.9258     2.1857     3.0093 H            1    LIG   0.0000
  30 H           -3.0800     2.1326     4.3898 H            1    LIG   0.0000
@<TRIPOS>BOND
   1        1        2 1
   2        2        3 ar
   3        3        4 ar
   4        4        5 ar
   5        5        6 ar
   6        6        7 ar
   7        7        2 ar
   8        7        8 1
   9        8        9 ar
  10        9       10 ar
  11       10       11 ar
  12       11       12 ar
  13       12       13 ar
  14       13        8 ar
  15       13       14 1
  16       14       15 1
  17       15       16 am
  18       16       12 1
  19       16       17 2
  20        1       18 1
  21        1       19 1
  22        1       20 1
  23        3       21 1
  24        4       22 1
  25        5       23 1
  26        6       24 1
  27        9       25 1
  28       10       26 1
  29       11       27 1
  30       14       28 1
  31       14       29 1
  32       15       30 1

@<TRIPOS>MOLECULE

  30   32
SMALL
USER_CHARGES
@<TRIPOS>ATOM
   1 C1           1.1884     3.6149     0.0117 C.3          1    LIG   0.0000
   2 C2           1.1696     2.0946     0.0034 C.ar         1    LIG   0.0000
   3 C3           2.3827     1.4137    -0.0112 C.ar         1    LIG   0.0000
   4 C4           2.3993     0.0227    -0.0192 C.ar         1    LIG   0.0000
   5 C5           1.2026    -0.6875    -0.0135 C.ar         1    LIG   0.0000
   6 C6          -0.0103    -0.0067     0.0011 C.ar         1    LIG   0.0000
   7 C7          -0.0276     1.3836     0.0095 C.ar         1    LIG   0.0000
   8 C8          -1.3089     2.0593     0.0243 C.ar         1    LIG   0.0000
   9 C9          -1.6001     2.9073     1.0880 C.ar         1    LIG   0.0000
  10 C10         -2.8207     3.5741     1.1203 C.ar         1    LIG   0.0000
  11 C11         -3.7409     3.3922     0.0934 C.ar         1    LIG   0.0000
  12 C12         -3.4121     2.5368    -0.9533 C.ar         1    LIG   0.0000
  13 C13         -2.2103     1.8520    -1.0171 C.ar         1    LIG   0.0000
  14 C14         -2.2067     1.0298    -2.2915 C.3          1    LIG   0.0000
  15 N15         -3.5009     1.2860    -2.9234 N.am         1    LIG   0.0000
  16 C16         -4.1892     2.1862    -2.1128 C.2          1    LIG   0.0000
  17 O17         -5.3028     2.6254    -2.3626 O.2          1    LIG   0.0000
  18 H            2.1352     3.9366     0.0055 H            1    LIG   0.0000
  19 H            0.7143     3.9585    -0.7989 H            1    LIG   0.0000
  20 H            0.7280     3.9494     0.8340 H            1    LIG   0.0000
  21 H            3.2426     1.9242    -0.0158 H            1    LIG   0.0000
  22 H            3.2712    -0.4668    -0.0291 H            1    LIG   0.0000
  23 H            1.2146    -1.6874    -0.0199 H            1    LIG   0.0000
  24 H           -0.8701    -0.5173     0.0057 H            1    LIG   0.0000
  25 H           -0.9363     3.0367     1.8247 H            1    LIG   0.0000
  26 H           -3.0366     4.1846     1.8823 H            1    LIG   0.0000
  27 H           -4.6210     3.8668     0.1072 H            1    LIG   0.0000
  28 H           -1.4610     1.3185    -2.8920 H            1    LIG   0.0000
  29 H           -2.1070     0.0575    -2.0801 H            1    LIG   0.0000
  30 H           -3.8309     0.8882    -3.7795 H            1    LIG   0.0000
@<TRIPOS>BOND
   1        1        2 1
   2        2        3 ar
   3        3        4 ar
   4        4        5 ar
   5        5        6 ar
   6        6        7 ar
   7        7        2 ar
   8        7        8 1
   9        8        9 ar
  10        9       10 ar
  11       10       11 ar
  12       11       12 ar
  13       12       13 ar
  14       13        8 ar
  15       13       14 1
  16       14       15 1
  17       15       16 am
  18       16       12 1
  19       16       17 2
  20        1       18 1
  21        1       19 1
  22        1       20 1
  23        3       21 1
  24        4       22 1
  25        5       23 1
  26        6       24 1
  27        9       25 1
  28       10       26 1
  29       11       27 1
  30       14       28 1
  31       14       29 1
  32       15       30 1

@<TRIPOS>MOLECULE

  30   32
SMALL
USER_CHARGES
@<TRIPOS>ATOM
   1 C1           1.1884     3.6149     0.0117 C.3          1    LIG   0.0000
   2 C2           1.1696     2.0946     0.0034 C.ar         1    LIG   0.0000
   3 C3           2.3827     1.4137    -0.0112 C.ar         1    LIG   0.0000
   4 C4           2.3993     0.0227    -0.0192 C.ar         1    LIG   0.0000
   5 C5           1.2026    -0.6875    -0.0135 C.ar         1    LIG   0.0000
   6 C6          -0.0103    -0.0067     0.0011 C.ar         1    LIG   0.0000
   7 C7          -0.0276     1.3836     0.0095 C.ar         1    LIG   0.0000
   8 C8          -1.3089     2.0593     0.0243 C.ar         1    LIG   0.0000
   9 C9          -1.7847     2.5540     1.2344 C.ar         1    LIG   0.0000
  10 C10         -3.0087     3.2143     1.2725 C.ar         1    LIG   0.0000
  11 C11         -3.7485     3.3775     0.1063 C.ar         1    LIG   0.0000
  12 C12         -3.2382     2.8694    -1.0841 C.ar         1    LIG   0.0000
  13 C13         -2.0273     2.2022    -1.1604 C.ar         1    LIG   0.0000
  14 C14         -1.8022     1.8038    -2.6063 C.3          1    LIG   0.0000
  15 N15         -2.9837     2.2756    -3.3283 N.am         1    LIG   0.0000
  16 C16         -3.8120     2.9079    -2.4034 C.2          1    LIG   0.0000
  17 O17         -4.8803     3.4334    -2.6822 O.2          1    LIG   0.0000
  18 H            2.1352     3.9366     0.0055 H            1    LIG   0.0000
  19 H            0.7143     3.9585    -0.7989 H            1    LIG   0.0000
  20 H            0.7280     3.9494     0.8340 H            1    LIG   0.0000
  21 H            3.2426     1.9242    -0.0158 H            1    LIG   0.0000
  22 H            3.2712    -0.4668    -0.0291 H            1    LIG   0.0000
  23 H            1.2146    -1.6874    -0.0199 H            1    LIG   0.0000
  24 H           -0.8701    -0.5173     0.0057 H            1    LIG   0.0000
  25 H           -1.2503     2.4359     2.0713 H            1    LIG   0.0000
  26 H           -3.3567     3.5718     2.1391 H            1    LIG   0.0000
  27 H           -4.6294     3.8504     0.1229 H            1    LIG   0.0000
  28 H           -0.9764     2.2392    -2.9646 H            1    LIG   0.0000
  29 H           -1.7169     0.8106    -2.6863 H            1    LIG   0.0000
  30 H           -3.1638     2.1647    -4.3056 H            1    LIG   0.0000
@<TRIPOS>BOND
   1        1        2 1
   2        2        3 ar
   3        3        4 ar
   4        4        5 ar
   5        5        6 ar
   6        6        7 ar
   7        7        2 ar
   8        7        8 1
   9        8        9 ar
  10        9       10 ar
  11       10       11 ar
  12       11       12 ar
  13       12       13 ar
  14       13        8 ar
  15       13       14 1
  16       14       15 1
  17       15       16 am
  18       16       12 1
  19       16       17 2
  20        1       18 1
  21        1       19 1
  22        1       20 1
  23        3       21 1
  24        4       22 1
  25        5       23 1
  26        6       24 1
  27        9       25 1
  28       10       26 1
  29       11       27 1
  30       14       28 1
  31       14       29 1
  32       15       30 1

