@<TRIPOS>MOLECULE
*****
 30 32 0 0 0
SMALL
USER_CHARGES

@<TRIPOS>ATOM
      1 C1          1.1884    3.6149    0.0117 C.3     1  LIG1        0.0000
      2 C2          1.1696    2.0946    0.0034 C.3     1  LIG1        0.0000
      3 C3          2.3827    1.4137   -0.0112 C.3     1  LIG1        0.0000
      4 C4          2.3993    0.0227   -0.0192 C.3     1  LIG1        0.0000
      5 C5          1.2026   -0.6875   -0.0135 C.3     1  LIG1        0.0000
      6 C6         -0.0103   -0.0067    0.0011 C.3     1  LIG1        0.0000
      7 C7         -0.0276    1.3836    0.0095 C.3     1  LIG1        0.0000
      8 C8         -1.3089    2.0593    0.0243 C.3     1  LIG1        0.0000
      9 C9         -1.8097    2.5595   -1.1734 C.3     1  LIG1        0.0000
     10 C10        -3.0422    3.2048   -1.1860 C.3     1  LIG1        0.0000
     11 C11        -3.7664    3.3461   -0.0072 C.3     1  LIG1        0.0000
     12 C12        -3.2321    2.8314    1.1697 C.3     1  LIG1        0.0000
     13 C13        -2.0070    2.1884    1.2226 C.3     1  LIG1        0.0000
     14 C14        -1.7620    1.7644    2.6580 C.3     1  LIG1        0.0000
     15 N15        -2.9264    2.2364    3.4072 N.am    1  LIG1        0.0000
     16 C16        -3.7818    2.8573    2.4996 C.2     1  LIG1        0.0000
     17 O17        -4.8611    3.3495    2.7966 O.2     1  LIG1        0.0000
     18 H           2.1352    3.9366    0.0055 H       1  LIG1        0.0000
     19 H           0.7143    3.9585   -0.7989 H       1  LIG1        0.0000
     20 H           0.7280    3.9494    0.8340 H       1  LIG1        0.0000
     21 H           3.2426    1.9242   -0.0158 H       1  LIG1        0.0000
     22 H           3.2712   -0.4668   -0.0291 H       1  LIG1        0.0000
     23 H           1.2146   -1.6874   -0.0199 H       1  LIG1        0.0000
     24 H          -0.8701   -0.5173    0.0057 H       1  LIG1        0.0000
     25 H          -1.2871    2.4559   -2.0197 H       1  LIG1        0.0000
     26 H          -3.4076    3.5672   -2.0434 H       1  LIG1        0.0000
     27 H          -4.6531    3.8083   -0.0055 H       1  LIG1        0.0000
     28 H          -1.6856    0.7693    2.7207 H       1  LIG1        0.0000
     29 H          -0.9258    2.1857    3.0093 H       1  LIG1        0.0000
     30 H          -3.0800    2.1326    4.3898 H       1  LIG1        0.0000
@<TRIPOS>BOND
     1     1     2    1
     2     2     3   ar
     3     3     4   ar
     4     4     5   ar
     5     5     6   ar
     6     6     7   ar
     7     7     2   ar
     8     7     8    1
     9     8     9   ar
    10     9    10   ar
    11    10    11   ar
    12    11    12   ar
    13    12    13   ar
    14    13     8   ar
    15    13    14    1
    16    14    15    1
    17    15    16   am
    18    16    12    1
    19    16    17    2
    20     1    18    1
    21     1    19    1
    22     1    20    1
    23     3    21    1
    24     4    22    1
    25     5    23    1
    26     6    24    1
    27     9    25    1
    28    10    26    1
    29    11    27    1
    30    14    28    1
    31    14    29    1
    32    15    30    1
