@<TRIPOS>MOLECULE

  64   67
SMALL
USER_CHARGES
@<TRIPOS>ATOM
   1 C1           4.2427    -4.7750     0.4644 C.3          1    LIG   0.0000
   2 C2           2.7951    -4.5139     0.0815 C.3          1    LIG   0.0000
   3 C3           2.4121    -3.0988     0.4829 C.3          1    LIG   0.0000
   4 O4           1.0597    -2.8549     0.1252 O.3          1    LIG   0.0000
   5 C5           0.6005    -1.5554     0.4581 C.3          1    LIG   0.0000
   6 C6           1.4644    -0.4891    -0.2057 C.3          1    LIG   0.0000
   7 C7           1.2679     0.9098     0.3666 C.3          1    LIG   0.0000
   8 C8           0.1916     1.7178    -0.3495 C.3          1    LIG   0.0000
   9 N9          -1.0226     0.9223    -0.5967 N.pl3        1    LIG   0.0000
  10 C10         -1.7631     1.1255    -1.7665 C.2          1    LIG   0.0000
  11 N11         -1.3400     1.6939    -2.8705 N.2          1    LIG   0.0000
  12 N12         -2.3251     1.7160    -3.7506 N.2          1    LIG   0.0000
  13 C13         -3.3898     1.1504    -3.2449 C.2          1    LIG   0.0000
  14 C14         -4.6691     0.9740    -3.9026 C.2          1    LIG   0.0000
  15 O15         -4.7403     1.0241    -5.0994 O.2          1    LIG   0.0000
  16 N16         -5.7970     0.7501    -3.1580 N.am         1    LIG   0.0000
  17 C17         -6.8987    -0.0483    -3.7146 C.3          1    LIG   0.0000
  18 C18         -7.1379    -1.2645    -2.8349 C.3          1    LIG   0.0000
  19 C19         -8.1613     0.7965    -3.7654 C.3          1    LIG   0.0000
  20 N20         -3.0607     0.7724    -1.9816 N.pl3        1    LIG   0.0000
  21 C21         -3.9455     0.0942    -1.0253 C.3          1    LIG   0.0000
  22 C22         -3.4853    -1.3405    -0.8396 C.2          1    LIG   0.0000
  23 N23         -3.2631    -1.9723     0.2845 N.2          1    LIG   0.0000
  24 C24         -2.8476    -3.2792     0.1698 C.ar         1    LIG   0.0000
  25 C25         -2.5176    -4.2774     1.0845 C.ar         1    LIG   0.0000
  26 C26         -2.1177    -5.5535     0.6901 C.ar         1    LIG   0.0000
  27 Cl27        -1.6995    -6.8232     1.8639 Cl           1    LIG   0.0000
  28 C28         -2.0239    -5.9050    -0.6498 C.ar         1    LIG   0.0000
  29 C29         -2.3420    -4.9622    -1.6138 C.ar         1    LIG   0.0000
  30 C30         -2.7263    -3.7206    -1.1302 C.ar         1    LIG   0.0000
  31 S31         -3.1602    -2.4105    -2.1198 S.3          1    LIG   0.0000
  32 C32         -1.4904    -0.1017     0.3556 C.3          1    LIG   0.0000
  33 C33         -0.8781    -1.4729     0.1020 C.3          1    LIG   0.0000
  34 H            0.6841    -1.4450     1.4485 H            1    LIG   0.0000
  35 H            4.4946    -5.7060     0.2003 H            1    LIG   0.0000
  36 H            4.8353    -4.1226    -0.0081 H            1    LIG   0.0000
  37 H            4.3506    -4.6681     1.4528 H            1    LIG   0.0000
  38 H            2.6872    -4.6208    -0.9069 H            1    LIG   0.0000
  39 H            2.2024    -5.1663     0.5540 H            1    LIG   0.0000
  40 H            2.5200    -2.9919     1.4713 H            1    LIG   0.0000
  41 H            3.0047    -2.4464     0.0105 H            1    LIG   0.0000
  42 H            1.2412    -0.4648    -1.1801 H            1    LIG   0.0000
  43 H            2.4243    -0.7446    -0.0898 H            1    LIG   0.0000
  44 H            1.0106     0.8241     1.3292 H            1    LIG   0.0000
  45 H            2.1340     1.4047     0.2959 H            1    LIG   0.0000
  46 H           -0.0491     2.5071     0.2154 H            1    LIG   0.0000
  47 H            0.5547     2.0336    -1.2261 H            1    LIG   0.0000
  48 H           -5.8709     1.1297    -2.2358 H            1    LIG   0.0000
  49 H           -6.6601    -0.3470    -4.6386 H            1    LIG   0.0000
  50 H           -7.8873    -1.8076    -3.2135 H            1    LIG   0.0000
  51 H           -6.3072    -1.8203    -2.8015 H            1    LIG   0.0000
  52 H           -7.3765    -0.9658    -1.9108 H            1    LIG   0.0000
  53 H           -8.9108     0.2534    -4.1440 H            1    LIG   0.0000
  54 H           -8.3999     1.0952    -2.8413 H            1    LIG   0.0000
  55 H           -8.0040     1.5967    -4.3441 H            1    LIG   0.0000
  56 H           -4.8823     0.1011    -1.3753 H            1    LIG   0.0000
  57 H           -3.9144     0.5707    -0.1467 H            1    LIG   0.0000
  58 H           -2.5696    -4.0704     2.0614 H            1    LIG   0.0000
  59 H           -1.7314    -6.8238    -0.9148 H            1    LIG   0.0000
  60 H           -2.2976    -5.1634    -2.5923 H            1    LIG   0.0000
  61 H           -2.4846    -0.1775     0.2793 H            1    LIG   0.0000
  62 H           -1.2482     0.1893     1.2811 H            1    LIG   0.0000
  63 H           -1.3735    -2.1467     0.6503 H            1    LIG   0.0000
  64 H           -0.9823    -1.6912    -0.8683 H            1    LIG   0.0000
@<TRIPOS>BOND
   1        1        2 1
   2        2        3 1
   3        3        4 1
   4        4        5 1
   5        5        6 1
   6        6        7 1
   7        7        8 1
   8        8        9 1
   9        9       10 1
  10       10       11 2
  11       11       12 1
  12       12       13 2
  13       13       14 1
  14       14       15 2
  15       14       16 am
  16       16       17 1
  17       17       18 1
  18       17       19 1
  19       13       20 1
  20       20       10 1
  21       20       21 1
  22       21       22 1
  23       22       23 2
  24       23       24 1
  25       24       25 ar
  26       25       26 ar
  27       26       27 1
  28       26       28 ar
  29       28       29 ar
  30       29       30 ar
  31       30       24 ar
  32       30       31 1
  33       31       22 1
  34        9       32 1
  35       32       33 1
  36       33        5 1
  37        5       34 1
  38        1       35 1
  39        1       36 1
  40        1       37 1
  41        2       38 1
  42        2       39 1
  43        3       40 1
  44        3       41 1
  45        6       42 1
  46        6       43 1
  47        7       44 1
  48        7       45 1
  49        8       46 1
  50        8       47 1
  51       16       48 1
  52       17       49 1
  53       18       50 1
  54       18       51 1
  55       18       52 1
  56       19       53 1
  57       19       54 1
  58       19       55 1
  59       21       56 1
  60       21       57 1
  61       25       58 1
  62       28       59 1
  63       29       60 1
  64       32       61 1
  65       32       62 1
  66       33       63 1
  67       33       64 1

@<TRIPOS>MOLECULE

  64   67
SMALL
USER_CHARGES
@<TRIPOS>ATOM
   1 C1          -0.1480    -5.0346     2.9043 C.3          1    LIG   0.0000
   2 C2           0.6325    -3.9135     2.2377 C.3          1    LIG   0.0000
   3 C3           0.3306    -3.9022     0.7480 C.3          1    LIG   0.0000
   4 O4           1.0597    -2.8549     0.1252 O.3          1    LIG   0.0000
   5 C5           0.6005    -1.5554     0.4581 C.3          1    LIG   0.0000
   6 C6           1.4644    -0.4891    -0.2057 C.3          1    LIG   0.0000
   7 C7           1.2679     0.9098     0.3666 C.3          1    LIG   0.0000
   8 C8           0.1916     1.7178    -0.3495 C.3          1    LIG   0.0000
   9 N9          -1.0226     0.9223    -0.5967 N.pl3        1    LIG   0.0000
  10 C10         -1.7631     1.1255    -1.7665 C.2          1    LIG   0.0000
  11 N11         -1.3400     1.6939    -2.8705 N.2          1    LIG   0.0000
  12 N12         -2.3251     1.7160    -3.7506 N.2          1    LIG   0.0000
  13 C13         -3.3898     1.1504    -3.2449 C.2          1    LIG   0.0000
  14 C14         -4.6691     0.9740    -3.9026 C.2          1    LIG   0.0000
  15 O15         -4.7403     1.0241    -5.0994 O.2          1    LIG   0.0000
  16 N16         -5.7970     0.7501    -3.1580 N.am         1    LIG   0.0000
  17 C17         -6.8987    -0.0483    -3.7146 C.3          1    LIG   0.0000
  18 C18         -7.1379    -1.2645    -2.8349 C.3          1    LIG   0.0000
  19 C19         -8.1613     0.7965    -3.7654 C.3          1    LIG   0.0000
  20 N20         -3.0607     0.7724    -1.9816 N.pl3        1    LIG   0.0000
  21 C21         -3.9455     0.0942    -1.0253 C.3          1    LIG   0.0000
  22 C22         -3.4853    -1.3405    -0.8396 C.2          1    LIG   0.0000
  23 N23         -3.2631    -1.9723     0.2845 N.2          1    LIG   0.0000
  24 C24         -2.8476    -3.2792     0.1698 C.ar         1    LIG   0.0000
  25 C25         -2.5176    -4.2774     1.0845 C.ar         1    LIG   0.0000
  26 C26         -2.1177    -5.5535     0.6901 C.ar         1    LIG   0.0000
  27 Cl27        -1.6995    -6.8232     1.8639 Cl           1    LIG   0.0000
  28 C28         -2.0239    -5.9050    -0.6498 C.ar         1    LIG   0.0000
  29 C29         -2.3420    -4.9622    -1.6138 C.ar         1    LIG   0.0000
  30 C30         -2.7263    -3.7206    -1.1302 C.ar         1    LIG   0.0000
  31 S31         -3.1602    -2.4105    -2.1198 S.3          1    LIG   0.0000
  32 C32         -1.4904    -0.1017     0.3556 C.3          1    LIG   0.0000
  33 C33         -0.8781    -1.4729     0.1020 C.3          1    LIG   0.0000
  34 H            0.6841    -1.4450     1.4485 H            1    LIG   0.0000
  35 H            0.0506    -5.0420     3.8844 H            1    LIG   0.0000
  36 H           -1.1272    -4.8885     2.7637 H            1    LIG   0.0000
  37 H            0.1192    -5.9109     2.5035 H            1    LIG   0.0000
  38 H            0.3653    -3.0372     2.6386 H            1    LIG   0.0000
  39 H            1.6117    -4.0596     2.3783 H            1    LIG   0.0000
  40 H            0.5978    -4.7785     0.3471 H            1    LIG   0.0000
  41 H           -0.6486    -3.7561     0.6074 H            1    LIG   0.0000
  42 H            1.2412    -0.4648    -1.1801 H            1    LIG   0.0000
  43 H            2.4243    -0.7446    -0.0898 H            1    LIG   0.0000
  44 H            1.0106     0.8241     1.3292 H            1    LIG   0.0000
  45 H            2.1340     1.4047     0.2959 H            1    LIG   0.0000
  46 H           -0.0491     2.5071     0.2154 H            1    LIG   0.0000
  47 H            0.5547     2.0336    -1.2261 H            1    LIG   0.0000
  48 H           -5.8709     1.1297    -2.2358 H            1    LIG   0.0000
  49 H           -6.6601    -0.3470    -4.6386 H            1    LIG   0.0000
  50 H           -7.8873    -1.8076    -3.2135 H            1    LIG   0.0000
  51 H           -6.3072    -1.8203    -2.8015 H            1    LIG   0.0000
  52 H           -7.3765    -0.9658    -1.9108 H            1    LIG   0.0000
  53 H           -8.9108     0.2534    -4.1440 H            1    LIG   0.0000
  54 H           -8.3999     1.0952    -2.8413 H            1    LIG   0.0000
  55 H           -8.0040     1.5967    -4.3441 H            1    LIG   0.0000
  56 H           -4.8823     0.1011    -1.3753 H            1    LIG   0.0000
  57 H           -3.9144     0.5707    -0.1467 H            1    LIG   0.0000
  58 H           -2.5696    -4.0704     2.0614 H            1    LIG   0.0000
  59 H           -1.7314    -6.8238    -0.9148 H            1    LIG   0.0000
  60 H           -2.2976    -5.1634    -2.5923 H            1    LIG   0.0000
  61 H           -2.4846    -0.1775     0.2793 H            1    LIG   0.0000
  62 H           -1.2482     0.1893     1.2811 H            1    LIG   0.0000
  63 H           -1.3735    -2.1467     0.6503 H            1    LIG   0.0000
  64 H           -0.9823    -1.6912    -0.8683 H            1    LIG   0.0000
@<TRIPOS>BOND
   1        1        2 1
   2        2        3 1
   3        3        4 1
   4        4        5 1
   5        5        6 1
   6        6        7 1
   7        7        8 1
   8        8        9 1
   9        9       10 1
  10       10       11 2
  11       11       12 1
  12       12       13 2
  13       13       14 1
  14       14       15 2
  15       14       16 am
  16       16       17 1
  17       17       18 1
  18       17       19 1
  19       13       20 1
  20       20       10 1
  21       20       21 1
  22       21       22 1
  23       22       23 2
  24       23       24 1
  25       24       25 ar
  26       25       26 ar
  27       26       27 1
  28       26       28 ar
  29       28       29 ar
  30       29       30 ar
  31       30       24 ar
  32       30       31 1
  33       31       22 1
  34        9       32 1
  35       32       33 1
  36       33        5 1
  37        5       34 1
  38        1       35 1
  39        1       36 1
  40        1       37 1
  41        2       38 1
  42        2       39 1
  43        3       40 1
  44        3       41 1
  45        6       42 1
  46        6       43 1
  47        7       44 1
  48        7       45 1
  49        8       46 1
  50        8       47 1
  51       16       48 1
  52       17       49 1
  53       18       50 1
  54       18       51 1
  55       18       52 1
  56       19       53 1
  57       19       54 1
  58       19       55 1
  59       21       56 1
  60       21       57 1
  61       25       58 1
  62       28       59 1
  63       29       60 1
  64       32       61 1
  65       32       62 1
  66       33       63 1
  67       33       64 1

@<TRIPOS>MOLECULE

  64   67
SMALL
USER_CHARGES
@<TRIPOS>ATOM
   1 C1           4.2427    -4.7750     0.4644 C.3          1    LIG   0.0000
   2 C2           2.7951    -4.5139     0.0815 C.3          1    LIG   0.0000
   3 C3           2.4121    -3.0988     0.4829 C.3          1    LIG   0.0000
   4 O4           1.0597    -2.8549     0.1252 O.3          1    LIG   0.0000
   5 C5           0.6005    -1.5554     0.4581 C.3          1    LIG   0.0000
   6 C6           1.4644    -0.4891    -0.2057 C.3          1    LIG   0.0000
   7 C7           1.2679     0.9098     0.3666 C.3          1    LIG   0.0000
   8 C8           0.1916     1.7178    -0.3495 C.3          1    LIG   0.0000
   9 N9          -1.0226     0.9223    -0.5967 N.pl3        1    LIG   0.0000
  10 C10         -1.7631     1.1255    -1.7665 C.2          1    LIG   0.0000
  11 N11         -1.3400     1.6939    -2.8705 N.2          1    LIG   0.0000
  12 N12         -2.3251     1.7160    -3.7506 N.2          1    LIG   0.0000
  13 C13         -3.3898     1.1504    -3.2449 C.2          1    LIG   0.0000
  14 C14         -4.6691     0.9740    -3.9026 C.2          1    LIG   0.0000
  15 O15         -5.5718     0.4350    -3.3242 O.2          1    LIG   0.0000
  16 N16         -4.8478     1.4226    -5.1847 N.am         1    LIG   0.0000
  17 C17         -6.1454     1.2436    -5.8518 C.3          1    LIG   0.0000
  18 C18         -6.7116     2.6022    -6.2314 C.3          1    LIG   0.0000
  19 C19         -5.9591     0.4042    -7.1053 C.3          1    LIG   0.0000
  20 N20         -3.0607     0.7724    -1.9816 N.pl3        1    LIG   0.0000
  21 C21         -3.9455     0.0942    -1.0253 C.3          1    LIG   0.0000
  22 C22         -3.4853    -1.3405    -0.8396 C.2          1    LIG   0.0000
  23 N23         -3.2631    -1.9723     0.2845 N.2          1    LIG   0.0000
  24 C24         -2.8476    -3.2792     0.1698 C.ar         1    LIG   0.0000
  25 C25         -2.5176    -4.2774     1.0845 C.ar         1    LIG   0.0000
  26 C26         -2.1177    -5.5535     0.6901 C.ar         1    LIG   0.0000
  27 Cl27        -1.6995    -6.8232     1.8639 Cl           1    LIG   0.0000
  28 C28         -2.0239    -5.9050    -0.6498 C.ar         1    LIG   0.0000
  29 C29         -2.3420    -4.9622    -1.6138 C.ar         1    LIG   0.0000
  30 C30         -2.7263    -3.7206    -1.1302 C.ar         1    LIG   0.0000
  31 S31         -3.1602    -2.4105    -2.1198 S.3          1    LIG   0.0000
  32 C32         -1.4904    -0.1017     0.3556 C.3          1    LIG   0.0000
  33 C33         -0.8781    -1.4729     0.1020 C.3          1    LIG   0.0000
  34 H            0.6841    -1.4450     1.4485 H            1    LIG   0.0000
  35 H            4.4946    -5.7060     0.2003 H            1    LIG   0.0000
  36 H            4.8353    -4.1226    -0.0081 H            1    LIG   0.0000
  37 H            4.3506    -4.6681     1.4528 H            1    LIG   0.0000
  38 H            2.6872    -4.6208    -0.9069 H            1    LIG   0.0000
  39 H            2.2024    -5.1663     0.5540 H            1    LIG   0.0000
  40 H            2.5200    -2.9919     1.4713 H            1    LIG   0.0000
  41 H            3.0047    -2.4464     0.0105 H            1    LIG   0.0000
  42 H            1.2412    -0.4648    -1.1801 H            1    LIG   0.0000
  43 H            2.4243    -0.7446    -0.0898 H            1    LIG   0.0000
  44 H            1.0106     0.8241     1.3292 H            1    LIG   0.0000
  45 H            2.1340     1.4047     0.2959 H            1    LIG   0.0000
  46 H           -0.0491     2.5071     0.2154 H            1    LIG   0.0000
  47 H            0.5547     2.0336    -1.2261 H            1    LIG   0.0000
  48 H           -4.0955     1.8717    -5.6667 H            1    LIG   0.0000
  49 H           -6.7781     0.7803    -5.2313 H            1    LIG   0.0000
  50 H           -7.5943     2.4805    -6.6852 H            1    LIG   0.0000
  51 H           -6.8341     3.1545    -5.4067 H            1    LIG   0.0000
  52 H           -6.0788     3.0655    -6.8519 H            1    LIG   0.0000
  53 H           -6.8419     0.2825    -7.5591 H            1    LIG   0.0000
  54 H           -5.3264     0.8675    -7.7257 H            1    LIG   0.0000
  55 H           -5.5867    -0.4896    -6.8556 H            1    LIG   0.0000
  56 H           -4.8823     0.1011    -1.3753 H            1    LIG   0.0000
  57 H           -3.9144     0.5707    -0.1467 H            1    LIG   0.0000
  58 H           -2.5696    -4.0704     2.0614 H            1    LIG   0.0000
  59 H           -1.7314    -6.8238    -0.9148 H            1    LIG   0.0000
  60 H           -2.2976    -5.1634    -2.5923 H            1    LIG   0.0000
  61 H           -2.4846    -0.1775     0.2793 H            1    LIG   0.0000
  62 H           -1.2482     0.1893     1.2811 H            1    LIG   0.0000
  63 H           -1.3735    -2.1467     0.6503 H            1    LIG   0.0000
  64 H           -0.9823    -1.6912    -0.8683 H            1    LIG   0.0000
@<TRIPOS>BOND
   1        1        2 1
   2        2        3 1
   3        3        4 1
   4        4        5 1
   5        5        6 1
   6        6        7 1
   7        7        8 1
   8        8        9 1
   9        9       10 1
  10       10       11 2
  11       11       12 1
  12       12       13 2
  13       13       14 1
  14       14       15 2
  15       14       16 am
  16       16       17 1
  17       17       18 1
  18       17       19 1
  19       13       20 1
  20       20       10 1
  21       20       21 1
  22       21       22 1
  23       22       23 2
  24       23       24 1
  25       24       25 ar
  26       25       26 ar
  27       26       27 1
  28       26       28 ar
  29       28       29 ar
  30       29       30 ar
  31       30       24 ar
  32       30       31 1
  33       31       22 1
  34        9       32 1
  35       32       33 1
  36       33        5 1
  37        5       34 1
  38        1       35 1
  39        1       36 1
  40        1       37 1
  41        2       38 1
  42        2       39 1
  43        3       40 1
  44        3       41 1
  45        6       42 1
  46        6       43 1
  47        7       44 1
  48        7       45 1
  49        8       46 1
  50        8       47 1
  51       16       48 1
  52       17       49 1
  53       18       50 1
  54       18       51 1
  55       18       52 1
  56       19       53 1
  57       19       54 1
  58       19       55 1
  59       21       56 1
  60       21       57 1
  61       25       58 1
  62       28       59 1
  63       29       60 1
  64       32       61 1
  65       32       62 1
  66       33       63 1
  67       33       64 1

@<TRIPOS>MOLECULE

  64   67
SMALL
USER_CHARGES
@<TRIPOS>ATOM
   1 C1          -0.1480    -5.0346     2.9043 C.3          1    LIG   0.0000
   2 C2           0.6325    -3.9135     2.2377 C.3          1    LIG   0.0000
   3 C3           0.3306    -3.9022     0.7480 C.3          1    LIG   0.0000
   4 O4           1.0597    -2.8549     0.1252 O.3          1    LIG   0.0000
   5 C5           0.6005    -1.5554     0.4581 C.3          1    LIG   0.0000
   6 C6           1.4644    -0.4891    -0.2057 C.3          1    LIG   0.0000
   7 C7           1.2679     0.9098     0.3666 C.3          1    LIG   0.0000
   8 C8           0.1916     1.7178    -0.3495 C.3          1    LIG   0.0000
   9 N9          -1.0226     0.9223    -0.5967 N.pl3        1    LIG   0.0000
  10 C10         -1.7631     1.1255    -1.7665 C.2          1    LIG   0.0000
  11 N11         -1.3400     1.6939    -2.8705 N.2          1    LIG   0.0000
  12 N12         -2.3251     1.7160    -3.7506 N.2          1    LIG   0.0000
  13 C13         -3.3898     1.1504    -3.2449 C.2          1    LIG   0.0000
  14 C14         -4.6691     0.9740    -3.9026 C.2          1    LIG   0.0000
  15 O15         -5.5718     0.4350    -3.3242 O.2          1    LIG   0.0000
  16 N16         -4.8478     1.4226    -5.1847 N.am         1    LIG   0.0000
  17 C17         -6.1454     1.2436    -5.8518 C.3          1    LIG   0.0000
  18 C18         -6.7116     2.6022    -6.2314 C.3          1    LIG   0.0000
  19 C19         -5.9591     0.4042    -7.1053 C.3          1    LIG   0.0000
  20 N20         -3.0607     0.7724    -1.9816 N.pl3        1    LIG   0.0000
  21 C21         -3.9455     0.0942    -1.0253 C.3          1    LIG   0.0000
  22 C22         -3.4853    -1.3405    -0.8396 C.2          1    LIG   0.0000
  23 N23         -3.2631    -1.9723     0.2845 N.2          1    LIG   0.0000
  24 C24         -2.8476    -3.2792     0.1698 C.ar         1    LIG   0.0000
  25 C25         -2.5176    -4.2774     1.0845 C.ar         1    LIG   0.0000
  26 C26         -2.1177    -5.5535     0.6901 C.ar         1    LIG   0.0000
  27 Cl27        -1.6995    -6.8232     1.8639 Cl           1    LIG   0.0000
  28 C28         -2.0239    -5.9050    -0.6498 C.ar         1    LIG   0.0000
  29 C29         -2.3420    -4.9622    -1.6138 C.ar         1    LIG   0.0000
  30 C30         -2.7263    -3.7206    -1.1302 C.ar         1    LIG   0.0000
  31 S31         -3.1602    -2.4105    -2.1198 S.3          1    LIG   0.0000
  32 C32         -1.4904    -0.1017     0.3556 C.3          1    LIG   0.0000
  33 C33         -0.8781    -1.4729     0.1020 C.3          1    LIG   0.0000
  34 H            0.6841    -1.4450     1.4485 H            1    LIG   0.0000
  35 H            0.0506    -5.0420     3.8844 H            1    LIG   0.0000
  36 H           -1.1272    -4.8885     2.7637 H            1    LIG   0.0000
  37 H            0.1192    -5.9109     2.5035 H            1    LIG   0.0000
  38 H            0.3653    -3.0372     2.6386 H            1    LIG   0.0000
  39 H            1.6117    -4.0596     2.3783 H            1    LIG   0.0000
  40 H            0.5978    -4.7785     0.3471 H            1    LIG   0.0000
  41 H           -0.6486    -3.7561     0.6074 H            1    LIG   0.0000
  42 H            1.2412    -0.4648    -1.1801 H            1    LIG   0.0000
  43 H            2.4243    -0.7446    -0.0898 H            1    LIG   0.0000
  44 H            1.0106     0.8241     1.3292 H            1    LIG   0.0000
  45 H            2.1340     1.4047     0.2959 H            1    LIG   0.0000
  46 H           -0.0491     2.5071     0.2154 H            1    LIG   0.0000
  47 H            0.5547     2.0336    -1.2261 H            1    LIG   0.0000
  48 H           -4.0955     1.8717    -5.6667 H            1    LIG   0.0000
  49 H           -6.7781     0.7803    -5.2313 H            1    LIG   0.0000
  50 H           -7.5943     2.4805    -6.6852 H            1    LIG   0.0000
  51 H           -6.8341     3.1545    -5.4067 H            1    LIG   0.0000
  52 H           -6.0788     3.0655    -6.8519 H            1    LIG   0.0000
  53 H           -6.8419     0.2825    -7.5591 H            1    LIG   0.0000
  54 H           -5.3264     0.8675    -7.7257 H            1    LIG   0.0000
  55 H           -5.5867    -0.4896    -6.8556 H            1    LIG   0.0000
  56 H           -4.8823     0.1011    -1.3753 H            1    LIG   0.0000
  57 H           -3.9144     0.5707    -0.1467 H            1    LIG   0.0000
  58 H           -2.5696    -4.0704     2.0614 H            1    LIG   0.0000
  59 H           -1.7314    -6.8238    -0.9148 H            1    LIG   0.0000
  60 H           -2.2976    -5.1634    -2.5923 H            1    LIG   0.0000
  61 H           -2.4846    -0.1775     0.2793 H            1    LIG   0.0000
  62 H           -1.2482     0.1893     1.2811 H            1    LIG   0.0000
  63 H           -1.3735    -2.1467     0.6503 H            1    LIG   0.0000
  64 H           -0.9823    -1.6912    -0.8683 H            1    LIG   0.0000
@<TRIPOS>BOND
   1        1        2 1
   2        2        3 1
   3        3        4 1
   4        4        5 1
   5        5        6 1
   6        6        7 1
   7        7        8 1
   8        8        9 1
   9        9       10 1
  10       10       11 2
  11       11       12 1
  12       12       13 2
  13       13       14 1
  14       14       15 2
  15       14       16 am
  16       16       17 1
  17       17       18 1
  18       17       19 1
  19       13       20 1
  20       20       10 1
  21       20       21 1
  22       21       22 1
  23       22       23 2
  24       23       24 1
  25       24       25 ar
  26       25       26 ar
  27       26       27 1
  28       26       28 ar
  29       28       29 ar
  30       29       30 ar
  31       30       24 ar
  32       30       31 1
  33       31       22 1
  34        9       32 1
  35       32       33 1
  36       33        5 1
  37        5       34 1
  38        1       35 1
  39        1       36 1
  40        1       37 1
  41        2       38 1
  42        2       39 1
  43        3       40 1
  44        3       41 1
  45        6       42 1
  46        6       43 1
  47        7       44 1
  48        7       45 1
  49        8       46 1
  50        8       47 1
  51       16       48 1
  52       17       49 1
  53       18       50 1
  54       18       51 1
  55       18       52 1
  56       19       53 1
  57       19       54 1
  58       19       55 1
  59       21       56 1
  60       21       57 1
  61       25       58 1
  62       28       59 1
  63       29       60 1
  64       32       61 1
  65       32       62 1
  66       33       63 1
  67       33       64 1

@<TRIPOS>MOLECULE

  64   67
SMALL
USER_CHARGES
@<TRIPOS>ATOM
   1 C1           4.4641    -3.8257    -0.9563 C.3          1    LIG   0.0000
   2 C2           3.1033    -3.1631    -1.0972 C.3          1    LIG   0.0000
   3 C3           2.4613    -3.0279     0.2739 C.3          1    LIG   0.0000
   4 O4           1.0597    -2.8549     0.1252 O.3          1    LIG   0.0000
   5 C5           0.6005    -1.5554     0.4581 C.3          1    LIG   0.0000
   6 C6           1.4644    -0.4891    -0.2057 C.3          1    LIG   0.0000
   7 C7           1.2679     0.9098     0.3666 C.3          1    LIG   0.0000
   8 C8           0.1916     1.7178    -0.3495 C.3          1    LIG   0.0000
   9 N9          -1.0226     0.9223    -0.5967 N.pl3        1    LIG   0.0000
  10 C10         -1.7631     1.1255    -1.7665 C.2          1    LIG   0.0000
  11 N11         -1.3400     1.6939    -2.8705 N.2          1    LIG   0.0000
  12 N12         -2.3251     1.7160    -3.7506 N.2          1    LIG   0.0000
  13 C13         -3.3898     1.1504    -3.2449 C.2          1    LIG   0.0000
  14 C14         -4.6691     0.9740    -3.9026 C.2          1    LIG   0.0000
  15 O15         -5.3643     0.0373    -3.6211 O.2          1    LIG   0.0000
  16 N16         -5.0846     1.8766    -4.8457 N.am         1    LIG   0.0000
  17 C17         -6.5196     2.1320    -5.0367 C.3          1    LIG   0.0000
  18 C18         -7.2123     2.1678    -3.6841 C.3          1    LIG   0.0000
  19 C19         -6.7077     3.4675    -5.7377 C.3          1    LIG   0.0000
  20 N20         -3.0607     0.7724    -1.9816 N.pl3        1    LIG   0.0000
  21 C21         -3.9455     0.0942    -1.0253 C.3          1    LIG   0.0000
  22 C22         -3.4853    -1.3405    -0.8396 C.2          1    LIG   0.0000
  23 N23         -3.2631    -1.9723     0.2845 N.2          1    LIG   0.0000
  24 C24         -2.8476    -3.2792     0.1698 C.ar         1    LIG   0.0000
  25 C25         -2.5176    -4.2774     1.0845 C.ar         1    LIG   0.0000
  26 C26         -2.1177    -5.5535     0.6901 C.ar         1    LIG   0.0000
  27 Cl27        -1.6995    -6.8232     1.8639 Cl           1    LIG   0.0000
  28 C28         -2.0239    -5.9050    -0.6498 C.ar         1    LIG   0.0000
  29 C29         -2.3420    -4.9622    -1.6138 C.ar         1    LIG   0.0000
  30 C30         -2.7263    -3.7206    -1.1302 C.ar         1    LIG   0.0000
  31 S31         -3.1602    -2.4105    -2.1198 S.3          1    LIG   0.0000
  32 C32         -1.4904    -0.1017     0.3556 C.3          1    LIG   0.0000
  33 C33         -0.8781    -1.4729     0.1020 C.3          1    LIG   0.0000
  34 H            0.6841    -1.4450     1.4485 H            1    LIG   0.0000
  35 H            4.8865    -3.9147    -1.8583 H            1    LIG   0.0000
  36 H            5.0481    -3.2659    -0.3685 H            1    LIG   0.0000
  37 H            4.3528    -4.7324    -0.5494 H            1    LIG   0.0000
  38 H            3.2146    -2.2565    -1.5041 H            1    LIG   0.0000
  39 H            2.5193    -3.7229    -1.6850 H            1    LIG   0.0000
  40 H            2.6404    -3.8536     0.8088 H            1    LIG   0.0000
  41 H            2.8468    -2.2349     0.7457 H            1    LIG   0.0000
  42 H            1.2412    -0.4648    -1.1801 H            1    LIG   0.0000
  43 H            2.4243    -0.7446    -0.0898 H            1    LIG   0.0000
  44 H            1.0106     0.8241     1.3292 H            1    LIG   0.0000
  45 H            2.1340     1.4047     0.2959 H            1    LIG   0.0000
  46 H           -0.0491     2.5071     0.2154 H            1    LIG   0.0000
  47 H            0.5547     2.0336    -1.2261 H            1    LIG   0.0000
  48 H           -4.4118     2.3617    -5.4042 H            1    LIG   0.0000
  49 H           -6.9164     1.4035    -5.5951 H            1    LIG   0.0000
  50 H           -8.1885     2.3415    -3.8140 H            1    LIG   0.0000
  51 H           -7.0885     1.2892    -3.2229 H            1    LIG   0.0000
  52 H           -6.8155     2.8963    -3.1256 H            1    LIG   0.0000
  53 H           -7.6839     3.6412    -5.8676 H            1    LIG   0.0000
  54 H           -6.3110     4.1959    -5.1793 H            1    LIG   0.0000
  55 H           -6.2521     3.4439    -6.6276 H            1    LIG   0.0000
  56 H           -4.8823     0.1011    -1.3753 H            1    LIG   0.0000
  57 H           -3.9144     0.5707    -0.1467 H            1    LIG   0.0000
  58 H           -2.5696    -4.0704     2.0614 H            1    LIG   0.0000
  59 H           -1.7314    -6.8238    -0.9148 H            1    LIG   0.0000
  60 H           -2.2976    -5.1634    -2.5923 H            1    LIG   0.0000
  61 H           -2.4846    -0.1775     0.2793 H            1    LIG   0.0000
  62 H           -1.2482     0.1893     1.2811 H            1    LIG   0.0000
  63 H           -1.3735    -2.1467     0.6503 H            1    LIG   0.0000
  64 H           -0.9823    -1.6912    -0.8683 H            1    LIG   0.0000
@<TRIPOS>BOND
   1        1        2 1
   2        2        3 1
   3        3        4 1
   4        4        5 1
   5        5        6 1
   6        6        7 1
   7        7        8 1
   8        8        9 1
   9        9       10 1
  10       10       11 2
  11       11       12 1
  12       12       13 2
  13       13       14 1
  14       14       15 2
  15       14       16 am
  16       16       17 1
  17       17       18 1
  18       17       19 1
  19       13       20 1
  20       20       10 1
  21       20       21 1
  22       21       22 1
  23       22       23 2
  24       23       24 1
  25       24       25 ar
  26       25       26 ar
  27       26       27 1
  28       26       28 ar
  29       28       29 ar
  30       29       30 ar
  31       30       24 ar
  32       30       31 1
  33       31       22 1
  34        9       32 1
  35       32       33 1
  36       33        5 1
  37        5       34 1
  38        1       35 1
  39        1       36 1
  40        1       37 1
  41        2       38 1
  42        2       39 1
  43        3       40 1
  44        3       41 1
  45        6       42 1
  46        6       43 1
  47        7       44 1
  48        7       45 1
  49        8       46 1
  50        8       47 1
  51       16       48 1
  52       17       49 1
  53       18       50 1
  54       18       51 1
  55       18       52 1
  56       19       53 1
  57       19       54 1
  58       19       55 1
  59       21       56 1
  60       21       57 1
  61       25       58 1
  62       28       59 1
  63       29       60 1
  64       32       61 1
  65       32       62 1
  66       33       63 1
  67       33       64 1

@<TRIPOS>MOLECULE

  64   67
SMALL
USER_CHARGES
@<TRIPOS>ATOM
   1 C1           3.1024    -5.1678     2.1696 C.3          1    LIG   0.0000
   2 C2           2.1929    -4.7749     1.0168 C.3          1    LIG   0.0000
   3 C3           2.2101    -3.2642     0.8501 C.3          1    LIG   0.0000
   4 O4           1.0597    -2.8549     0.1252 O.3          1    LIG   0.0000
   5 C5           0.6005    -1.5554     0.4581 C.3          1    LIG   0.0000
   6 C6           1.4644    -0.4891    -0.2057 C.3          1    LIG   0.0000
   7 C7           1.2679     0.9098     0.3666 C.3          1    LIG   0.0000
   8 C8           0.1916     1.7178    -0.3495 C.3          1    LIG   0.0000
   9 N9          -1.0226     0.9223    -0.5967 N.pl3        1    LIG   0.0000
  10 C10         -1.7631     1.1255    -1.7665 C.2          1    LIG   0.0000
  11 N11         -1.3400     1.6939    -2.8705 N.2          1    LIG   0.0000
  12 N12         -2.3251     1.7160    -3.7506 N.2          1    LIG   0.0000
  13 C13         -3.3898     1.1504    -3.2449 C.2          1    LIG   0.0000
  14 C14         -4.6691     0.9740    -3.9026 C.2          1    LIG   0.0000
  15 O15         -5.3643     0.0373    -3.6211 O.2          1    LIG   0.0000
  16 N16         -5.0846     1.8766    -4.8457 N.am         1    LIG   0.0000
  17 C17         -6.5196     2.1320    -5.0367 C.3          1    LIG   0.0000
  18 C18         -7.2123     2.1678    -3.6841 C.3          1    LIG   0.0000
  19 C19         -6.7077     3.4675    -5.7377 C.3          1    LIG   0.0000
  20 N20         -3.0607     0.7724    -1.9816 N.pl3        1    LIG   0.0000
  21 C21         -3.9455     0.0942    -1.0253 C.3          1    LIG   0.0000
  22 C22         -3.4853    -1.3405    -0.8396 C.2          1    LIG   0.0000
  23 N23         -3.2631    -1.9723     0.2845 N.2          1    LIG   0.0000
  24 C24         -2.8476    -3.2792     0.1698 C.ar         1    LIG   0.0000
  25 C25         -2.5176    -4.2774     1.0845 C.ar         1    LIG   0.0000
  26 C26         -2.1177    -5.5535     0.6901 C.ar         1    LIG   0.0000
  27 Cl27        -1.6995    -6.8232     1.8639 Cl           1    LIG   0.0000
  28 C28         -2.0239    -5.9050    -0.6498 C.ar         1    LIG   0.0000
  29 C29         -2.3420    -4.9622    -1.6138 C.ar         1    LIG   0.0000
  30 C30         -2.7263    -3.7206    -1.1302 C.ar         1    LIG   0.0000
  31 S31         -3.1602    -2.4105    -2.1198 S.3          1    LIG   0.0000
  32 C32         -1.4904    -0.1017     0.3556 C.3          1    LIG   0.0000
  33 C33         -0.8781    -1.4729     0.1020 C.3          1    LIG   0.0000
  34 H            0.6841    -1.4450     1.4485 H            1    LIG   0.0000
  35 H            3.0911    -6.1617     2.2793 H            1    LIG   0.0000
  36 H            4.0355    -4.8644     1.9763 H            1    LIG   0.0000
  37 H            2.7791    -4.7358     3.0115 H            1    LIG   0.0000
  38 H            2.5163    -5.2069     0.1749 H            1    LIG   0.0000
  39 H            1.2599    -5.0783     1.2101 H            1    LIG   0.0000
  40 H            2.2089    -2.8294     1.7506 H            1    LIG   0.0000
  41 H            3.0329    -2.9934     0.3503 H            1    LIG   0.0000
  42 H            1.2412    -0.4648    -1.1801 H            1    LIG   0.0000
  43 H            2.4243    -0.7446    -0.0898 H            1    LIG   0.0000
  44 H            1.0106     0.8241     1.3292 H            1    LIG   0.0000
  45 H            2.1340     1.4047     0.2959 H            1    LIG   0.0000
  46 H           -0.0491     2.5071     0.2154 H            1    LIG   0.0000
  47 H            0.5547     2.0336    -1.2261 H            1    LIG   0.0000
  48 H           -4.4118     2.3617    -5.4042 H            1    LIG   0.0000
  49 H           -6.9164     1.4035    -5.5951 H            1    LIG   0.0000
  50 H           -8.1885     2.3415    -3.8140 H            1    LIG   0.0000
  51 H           -7.0885     1.2892    -3.2229 H            1    LIG   0.0000
  52 H           -6.8155     2.8963    -3.1256 H            1    LIG   0.0000
  53 H           -7.6839     3.6412    -5.8676 H            1    LIG   0.0000
  54 H           -6.3110     4.1959    -5.1793 H            1    LIG   0.0000
  55 H           -6.2521     3.4439    -6.6276 H            1    LIG   0.0000
  56 H           -4.8823     0.1011    -1.3753 H            1    LIG   0.0000
  57 H           -3.9144     0.5707    -0.1467 H            1    LIG   0.0000
  58 H           -2.5696    -4.0704     2.0614 H            1    LIG   0.0000
  59 H           -1.7314    -6.8238    -0.9148 H            1    LIG   0.0000
  60 H           -2.2976    -5.1634    -2.5923 H            1    LIG   0.0000
  61 H           -2.4846    -0.1775     0.2793 H            1    LIG   0.0000
  62 H           -1.2482     0.1893     1.2811 H            1    LIG   0.0000
  63 H           -1.3735    -2.1467     0.6503 H            1    LIG   0.0000
  64 H           -0.9823    -1.6912    -0.8683 H            1    LIG   0.0000
@<TRIPOS>BOND
   1        1        2 1
   2        2        3 1
   3        3        4 1
   4        4        5 1
   5        5        6 1
   6        6        7 1
   7        7        8 1
   8        8        9 1
   9        9       10 1
  10       10       11 2
  11       11       12 1
  12       12       13 2
  13       13       14 1
  14       14       15 2
  15       14       16 am
  16       16       17 1
  17       17       18 1
  18       17       19 1
  19       13       20 1
  20       20       10 1
  21       20       21 1
  22       21       22 1
  23       22       23 2
  24       23       24 1
  25       24       25 ar
  26       25       26 ar
  27       26       27 1
  28       26       28 ar
  29       28       29 ar
  30       29       30 ar
  31       30       24 ar
  32       30       31 1
  33       31       22 1
  34        9       32 1
  35       32       33 1
  36       33        5 1
  37        5       34 1
  38        1       35 1
  39        1       36 1
  40        1       37 1
  41        2       38 1
  42        2       39 1
  43        3       40 1
  44        3       41 1
  45        6       42 1
  46        6       43 1
  47        7       44 1
  48        7       45 1
  49        8       46 1
  50        8       47 1
  51       16       48 1
  52       17       49 1
  53       18       50 1
  54       18       51 1
  55       18       52 1
  56       19       53 1
  57       19       54 1
  58       19       55 1
  59       21       56 1
  60       21       57 1
  61       25       58 1
  62       28       59 1
  63       29       60 1
  64       32       61 1
  65       32       62 1
  66       33       63 1
  67       33       64 1

@<TRIPOS>MOLECULE

  64   67
SMALL
USER_CHARGES
@<TRIPOS>ATOM
   1 C1           3.9735    -2.9456     2.4064 C.3          1    LIG   0.0000
   2 C2           2.5290    -3.1814     1.9961 C.3          1    LIG   0.0000
   3 C3           2.4121    -3.0988     0.4829 C.3          1    LIG   0.0000
   4 O4           1.0597    -2.8549     0.1252 O.3          1    LIG   0.0000
   5 C5           0.6005    -1.5554     0.4581 C.3          1    LIG   0.0000
   6 C6           1.4644    -0.4891    -0.2057 C.3          1    LIG   0.0000
   7 C7           1.2679     0.9098     0.3666 C.3          1    LIG   0.0000
   8 C8           0.1916     1.7178    -0.3495 C.3          1    LIG   0.0000
   9 N9          -1.0226     0.9223    -0.5967 N.pl3        1    LIG   0.0000
  10 C10         -1.7631     1.1255    -1.7665 C.2          1    LIG   0.0000
  11 N11         -1.3400     1.6939    -2.8705 N.2          1    LIG   0.0000
  12 N12         -2.3251     1.7160    -3.7506 N.2          1    LIG   0.0000
  13 C13         -3.3898     1.1504    -3.2449 C.2          1    LIG   0.0000
  14 C14         -4.6691     0.9740    -3.9026 C.2          1    LIG   0.0000
  15 O15         -5.1124    -0.1290    -4.0664 O.2          1    LIG   0.0000
  16 N16         -5.3722     2.0665    -4.3373 N.am         1    LIG   0.0000
  17 C17         -6.6698     1.8875    -5.0045 C.3          1    LIG   0.0000
  18 C18         -7.2360     3.2461    -5.3840 C.3          1    LIG   0.0000
  19 C19         -6.4836     1.0481    -6.2579 C.3          1    LIG   0.0000
  20 N20         -3.0607     0.7724    -1.9816 N.pl3        1    LIG   0.0000
  21 C21         -3.9455     0.0942    -1.0253 C.3          1    LIG   0.0000
  22 C22         -3.4853    -1.3405    -0.8396 C.2          1    LIG   0.0000
  23 N23         -3.2631    -1.9723     0.2845 N.2          1    LIG   0.0000
  24 C24         -2.8476    -3.2792     0.1698 C.ar         1    LIG   0.0000
  25 C25         -2.5176    -4.2774     1.0845 C.ar         1    LIG   0.0000
  26 C26         -2.1177    -5.5535     0.6901 C.ar         1    LIG   0.0000
  27 Cl27        -1.6995    -6.8232     1.8639 Cl           1    LIG   0.0000
  28 C28         -2.0239    -5.9050    -0.6498 C.ar         1    LIG   0.0000
  29 C29         -2.3420    -4.9622    -1.6138 C.ar         1    LIG   0.0000
  30 C30         -2.7263    -3.7206    -1.1302 C.ar         1    LIG   0.0000
  31 S31         -3.1602    -2.4105    -2.1198 S.3          1    LIG   0.0000
  32 C32         -1.4904    -0.1017     0.3556 C.3          1    LIG   0.0000
  33 C33         -0.8781    -1.4729     0.1020 C.3          1    LIG   0.0000
  34 H            0.6841    -1.4450     1.4485 H            1    LIG   0.0000
  35 H            4.0504    -2.9999     3.4019 H            1    LIG   0.0000
  36 H            4.5567    -3.6422     1.9885 H            1    LIG   0.0000
  37 H            4.2637    -2.0394     2.0986 H            1    LIG   0.0000
  38 H            2.2388    -4.0876     2.3039 H            1    LIG   0.0000
  39 H            1.9458    -2.4848     2.4141 H            1    LIG   0.0000
  40 H            2.9861    -2.3531     0.1445 H            1    LIG   0.0000
  41 H            2.7136    -3.9618     0.0777 H            1    LIG   0.0000
  42 H            1.2412    -0.4648    -1.1801 H            1    LIG   0.0000
  43 H            2.4243    -0.7446    -0.0898 H            1    LIG   0.0000
  44 H            1.0106     0.8241     1.3292 H            1    LIG   0.0000
  45 H            2.1340     1.4047     0.2959 H            1    LIG   0.0000
  46 H           -0.0491     2.5071     0.2154 H            1    LIG   0.0000
  47 H            0.5547     2.0336    -1.2261 H            1    LIG   0.0000
  48 H           -5.0027     2.9856    -4.2008 H            1    LIG   0.0000
  49 H           -7.3026     1.4242    -4.3840 H            1    LIG   0.0000
  50 H           -8.1187     3.1244    -5.8379 H            1    LIG   0.0000
  51 H           -7.3585     3.7984    -4.5594 H            1    LIG   0.0000
  52 H           -6.6033     3.7094    -6.0045 H            1    LIG   0.0000
  53 H           -7.3663     0.9264    -6.7118 H            1    LIG   0.0000
  54 H           -5.8509     1.5114    -6.8784 H            1    LIG   0.0000
  55 H           -6.1111     0.1543    -6.0082 H            1    LIG   0.0000
  56 H           -4.8823     0.1011    -1.3753 H            1    LIG   0.0000
  57 H           -3.9144     0.5707    -0.1467 H            1    LIG   0.0000
  58 H           -2.5696    -4.0704     2.0614 H            1    LIG   0.0000
  59 H           -1.7314    -6.8238    -0.9148 H            1    LIG   0.0000
  60 H           -2.2976    -5.1634    -2.5923 H            1    LIG   0.0000
  61 H           -2.4846    -0.1775     0.2793 H            1    LIG   0.0000
  62 H           -1.2482     0.1893     1.2811 H            1    LIG   0.0000
  63 H           -1.3735    -2.1467     0.6503 H            1    LIG   0.0000
  64 H           -0.9823    -1.6912    -0.8683 H            1    LIG   0.0000
@<TRIPOS>BOND
   1        1        2 1
   2        2        3 1
   3        3        4 1
   4        4        5 1
   5        5        6 1
   6        6        7 1
   7        7        8 1
   8        8        9 1
   9        9       10 1
  10       10       11 2
  11       11       12 1
  12       12       13 2
  13       13       14 1
  14       14       15 2
  15       14       16 am
  16       16       17 1
  17       17       18 1
  18       17       19 1
  19       13       20 1
  20       20       10 1
  21       20       21 1
  22       21       22 1
  23       22       23 2
  24       23       24 1
  25       24       25 ar
  26       25       26 ar
  27       26       27 1
  28       26       28 ar
  29       28       29 ar
  30       29       30 ar
  31       30       24 ar
  32       30       31 1
  33       31       22 1
  34        9       32 1
  35       32       33 1
  36       33        5 1
  37        5       34 1
  38        1       35 1
  39        1       36 1
  40        1       37 1
  41        2       38 1
  42        2       39 1
  43        3       40 1
  44        3       41 1
  45        6       42 1
  46        6       43 1
  47        7       44 1
  48        7       45 1
  49        8       46 1
  50        8       47 1
  51       16       48 1
  52       17       49 1
  53       18       50 1
  54       18       51 1
  55       18       52 1
  56       19       53 1
  57       19       54 1
  58       19       55 1
  59       21       56 1
  60       21       57 1
  61       25       58 1
  62       28       59 1
  63       29       60 1
  64       32       61 1
  65       32       62 1
  66       33       63 1
  67       33       64 1

@<TRIPOS>MOLECULE

  64   67
SMALL
USER_CHARGES
@<TRIPOS>ATOM
   1 C1          -0.1480    -5.0346     2.9043 C.3          1    LIG   0.0000
   2 C2           0.6325    -3.9135     2.2377 C.3          1    LIG   0.0000
   3 C3           0.3306    -3.9022     0.7480 C.3          1    LIG   0.0000
   4 O4           1.0597    -2.8549     0.1252 O.3          1    LIG   0.0000
   5 C5           0.6005    -1.5554     0.4581 C.3          1    LIG   0.0000
   6 C6           1.4644    -0.4891    -0.2057 C.3          1    LIG   0.0000
   7 C7           1.2679     0.9098     0.3666 C.3          1    LIG   0.0000
   8 C8           0.1916     1.7178    -0.3495 C.3          1    LIG   0.0000
   9 N9          -1.0226     0.9223    -0.5967 N.pl3        1    LIG   0.0000
  10 C10         -1.7631     1.1255    -1.7665 C.2          1    LIG   0.0000
  11 N11         -1.3400     1.6939    -2.8705 N.2          1    LIG   0.0000
  12 N12         -2.3251     1.7160    -3.7506 N.2          1    LIG   0.0000
  13 C13         -3.3898     1.1504    -3.2449 C.2          1    LIG   0.0000
  14 C14         -4.6691     0.9740    -3.9026 C.2          1    LIG   0.0000
  15 O15         -5.1124    -0.1290    -4.0664 O.2          1    LIG   0.0000
  16 N16         -5.3722     2.0665    -4.3373 N.am         1    LIG   0.0000
  17 C17         -6.6698     1.8875    -5.0045 C.3          1    LIG   0.0000
  18 C18         -7.4520     0.7880    -4.3046 C.3          1    LIG   0.0000
  19 C19         -7.4555     3.1872    -4.9412 C.3          1    LIG   0.0000
  20 N20         -3.0607     0.7724    -1.9816 N.pl3        1    LIG   0.0000
  21 C21         -3.9455     0.0942    -1.0253 C.3          1    LIG   0.0000
  22 C22         -3.4853    -1.3405    -0.8396 C.2          1    LIG   0.0000
  23 N23         -3.2631    -1.9723     0.2845 N.2          1    LIG   0.0000
  24 C24         -2.8476    -3.2792     0.1698 C.ar         1    LIG   0.0000
  25 C25         -2.5176    -4.2774     1.0845 C.ar         1    LIG   0.0000
  26 C26         -2.1177    -5.5535     0.6901 C.ar         1    LIG   0.0000
  27 Cl27        -1.6995    -6.8232     1.8639 Cl           1    LIG   0.0000
  28 C28         -2.0239    -5.9050    -0.6498 C.ar         1    LIG   0.0000
  29 C29         -2.3420    -4.9622    -1.6138 C.ar         1    LIG   0.0000
  30 C30         -2.7263    -3.7206    -1.1302 C.ar         1    LIG   0.0000
  31 S31         -3.1602    -2.4105    -2.1198 S.3          1    LIG   0.0000
  32 C32         -1.4904    -0.1017     0.3556 C.3          1    LIG   0.0000
  33 C33         -0.8781    -1.4729     0.1020 C.3          1    LIG   0.0000
  34 H            0.6841    -1.4450     1.4485 H            1    LIG   0.0000
  35 H            0.0506    -5.0420     3.8844 H            1    LIG   0.0000
  36 H           -1.1272    -4.8885     2.7637 H            1    LIG   0.0000
  37 H            0.1192    -5.9109     2.5035 H            1    LIG   0.0000
  38 H            0.3653    -3.0372     2.6386 H            1    LIG   0.0000
  39 H            1.6117    -4.0596     2.3783 H            1    LIG   0.0000
  40 H            0.5978    -4.7785     0.3471 H            1    LIG   0.0000
  41 H           -0.6486    -3.7561     0.6074 H            1    LIG   0.0000
  42 H            1.2412    -0.4648    -1.1801 H            1    LIG   0.0000
  43 H            2.4243    -0.7446    -0.0898 H            1    LIG   0.0000
  44 H            1.0106     0.8241     1.3292 H            1    LIG   0.0000
  45 H            2.1340     1.4047     0.2959 H            1    LIG   0.0000
  46 H           -0.0491     2.5071     0.2154 H            1    LIG   0.0000
  47 H            0.5547     2.0336    -1.2261 H            1    LIG   0.0000
  48 H           -5.0027     2.9856    -4.2008 H            1    LIG   0.0000
  49 H           -6.5210     1.6341    -5.9603 H            1    LIG   0.0000
  50 H           -8.3347     0.6663    -4.7585 H            1    LIG   0.0000
  51 H           -6.9351    -0.0670    -4.3462 H            1    LIG   0.0000
  52 H           -7.6008     1.0415    -3.3488 H            1    LIG   0.0000
  53 H           -8.3383     3.0654    -5.3951 H            1    LIG   0.0000
  54 H           -7.6043     3.4406    -3.9854 H            1    LIG   0.0000
  55 H           -6.9409     3.9105    -5.4017 H            1    LIG   0.0000
  56 H           -4.8823     0.1011    -1.3753 H            1    LIG   0.0000
  57 H           -3.9144     0.5707    -0.1467 H            1    LIG   0.0000
  58 H           -2.5696    -4.0704     2.0614 H            1    LIG   0.0000
  59 H           -1.7314    -6.8238    -0.9148 H            1    LIG   0.0000
  60 H           -2.2976    -5.1634    -2.5923 H            1    LIG   0.0000
  61 H           -2.4846    -0.1775     0.2793 H            1    LIG   0.0000
  62 H           -1.2482     0.1893     1.2811 H            1    LIG   0.0000
  63 H           -1.3735    -2.1467     0.6503 H            1    LIG   0.0000
  64 H           -0.9823    -1.6912    -0.8683 H            1    LIG   0.0000
@<TRIPOS>BOND
   1        1        2 1
   2        2        3 1
   3        3        4 1
   4        4        5 1
   5        5        6 1
   6        6        7 1
   7        7        8 1
   8        8        9 1
   9        9       10 1
  10       10       11 2
  11       11       12 1
  12       12       13 2
  13       13       14 1
  14       14       15 2
  15       14       16 am
  16       16       17 1
  17       17       18 1
  18       17       19 1
  19       13       20 1
  20       20       10 1
  21       20       21 1
  22       21       22 1
  23       22       23 2
  24       23       24 1
  25       24       25 ar
  26       25       26 ar
  27       26       27 1
  28       26       28 ar
  29       28       29 ar
  30       29       30 ar
  31       30       24 ar
  32       30       31 1
  33       31       22 1
  34        9       32 1
  35       32       33 1
  36       33        5 1
  37        5       34 1
  38        1       35 1
  39        1       36 1
  40        1       37 1
  41        2       38 1
  42        2       39 1
  43        3       40 1
  44        3       41 1
  45        6       42 1
  46        6       43 1
  47        7       44 1
  48        7       45 1
  49        8       46 1
  50        8       47 1
  51       16       48 1
  52       17       49 1
  53       18       50 1
  54       18       51 1
  55       18       52 1
  56       19       53 1
  57       19       54 1
  58       19       55 1
  59       21       56 1
  60       21       57 1
  61       25       58 1
  62       28       59 1
  63       29       60 1
  64       32       61 1
  65       32       62 1
  66       33       63 1
  67       33       64 1

@<TRIPOS>MOLECULE

  64   67
SMALL
USER_CHARGES
@<TRIPOS>ATOM
   1 C1           1.7252    -6.0076     1.8678 C.3          1    LIG   0.0000
   2 C2           1.9637    -4.9840     0.7697 C.3          1    LIG   0.0000
   3 C3           1.4960    -3.6168     1.2413 C.3          1    LIG   0.0000
   4 O4           1.0597    -2.8549     0.1252 O.3          1    LIG   0.0000
   5 C5           0.6005    -1.5554     0.4581 C.3          1    LIG   0.0000
   6 C6           1.4644    -0.4891    -0.2057 C.3          1    LIG   0.0000
   7 C7           1.2679     0.9098     0.3666 C.3          1    LIG   0.0000
   8 C8           0.1916     1.7178    -0.3495 C.3          1    LIG   0.0000
   9 N9          -1.0226     0.9223    -0.5967 N.pl3        1    LIG   0.0000
  10 C10         -1.7631     1.1255    -1.7665 C.2          1    LIG   0.0000
  11 N11         -1.3400     1.6939    -2.8705 N.2          1    LIG   0.0000
  12 N12         -2.3251     1.7160    -3.7506 N.2          1    LIG   0.0000
  13 C13         -3.3898     1.1504    -3.2449 C.2          1    LIG   0.0000
  14 C14         -4.6691     0.9740    -3.9026 C.2          1    LIG   0.0000
  15 O15         -5.1124    -0.1290    -4.0664 O.2          1    LIG   0.0000
  16 N16         -5.3722     2.0665    -4.3373 N.am         1    LIG   0.0000
  17 C17         -6.8409     2.0247    -4.3830 C.3          1    LIG   0.0000
  18 C18         -7.3493     3.1020    -5.3272 C.3          1    LIG   0.0000
  19 C19         -7.2938     0.6612    -4.8792 C.3          1    LIG   0.0000
  20 N20         -3.0607     0.7724    -1.9816 N.pl3        1    LIG   0.0000
  21 C21         -3.9455     0.0942    -1.0253 C.3          1    LIG   0.0000
  22 C22         -3.4853    -1.3405    -0.8396 C.2          1    LIG   0.0000
  23 N23         -3.2631    -1.9723     0.2845 N.2          1    LIG   0.0000
  24 C24         -2.8476    -3.2792     0.1698 C.ar         1    LIG   0.0000
  25 C25         -2.5176    -4.2774     1.0845 C.ar         1    LIG   0.0000
  26 C26         -2.1177    -5.5535     0.6901 C.ar         1    LIG   0.0000
  27 Cl27        -1.6995    -6.8232     1.8639 Cl           1    LIG   0.0000
  28 C28         -2.0239    -5.9050    -0.6498 C.ar         1    LIG   0.0000
  29 C29         -2.3420    -4.9622    -1.6138 C.ar         1    LIG   0.0000
  30 C30         -2.7263    -3.7206    -1.1302 C.ar         1    LIG   0.0000
  31 S31         -3.1602    -2.4105    -2.1198 S.3          1    LIG   0.0000
  32 C32         -1.4904    -0.1017     0.3556 C.3          1    LIG   0.0000
  33 C33         -0.8781    -1.4729     0.1020 C.3          1    LIG   0.0000
  34 H            0.6841    -1.4450     1.4485 H            1    LIG   0.0000
  35 H            2.0328    -6.9071     1.5576 H            1    LIG   0.0000
  36 H            2.2365    -5.7442     2.6858 H            1    LIG   0.0000
  37 H            0.7492    -6.0449     2.0825 H            1    LIG   0.0000
  38 H            2.9396    -4.9467     0.5551 H            1    LIG   0.0000
  39 H            1.4523    -5.2474    -0.0483 H            1    LIG   0.0000
  40 H            0.7393    -3.7273     1.8857 H            1    LIG   0.0000
  41 H            2.2521    -3.1434     1.6930 H            1    LIG   0.0000
  42 H            1.2412    -0.4648    -1.1801 H            1    LIG   0.0000
  43 H            2.4243    -0.7446    -0.0898 H            1    LIG   0.0000
  44 H            1.0106     0.8241     1.3292 H            1    LIG   0.0000
  45 H            2.1340     1.4047     0.2959 H            1    LIG   0.0000
  46 H           -0.0491     2.5071     0.2154 H            1    LIG   0.0000
  47 H            0.5547     2.0336    -1.2261 H            1    LIG   0.0000
  48 H           -4.8863     2.8923    -4.6235 H            1    LIG   0.0000
  49 H           -7.2076     2.1846    -3.4666 H            1    LIG   0.0000
  50 H           -8.3484     3.0736    -5.3583 H            1    LIG   0.0000
  51 H           -7.0513     3.9990    -5.0008 H            1    LIG   0.0000
  52 H           -6.9826     2.9421    -6.2437 H            1    LIG   0.0000
  53 H           -8.2929     0.6328    -4.9103 H            1    LIG   0.0000
  54 H           -6.9271     0.5013    -5.7957 H            1    LIG   0.0000
  55 H           -6.9593    -0.0475    -4.2581 H            1    LIG   0.0000
  56 H           -4.8823     0.1011    -1.3753 H            1    LIG   0.0000
  57 H           -3.9144     0.5707    -0.1467 H            1    LIG   0.0000
  58 H           -2.5696    -4.0704     2.0614 H            1    LIG   0.0000
  59 H           -1.7314    -6.8238    -0.9148 H            1    LIG   0.0000
  60 H           -2.2976    -5.1634    -2.5923 H            1    LIG   0.0000
  61 H           -2.4846    -0.1775     0.2793 H            1    LIG   0.0000
  62 H           -1.2482     0.1893     1.2811 H            1    LIG   0.0000
  63 H           -1.3735    -2.1467     0.6503 H            1    LIG   0.0000
  64 H           -0.9823    -1.6912    -0.8683 H            1    LIG   0.0000
@<TRIPOS>BOND
   1        1        2 1
   2        2        3 1
   3        3        4 1
   4        4        5 1
   5        5        6 1
   6        6        7 1
   7        7        8 1
   8        8        9 1
   9        9       10 1
  10       10       11 2
  11       11       12 1
  12       12       13 2
  13       13       14 1
  14       14       15 2
  15       14       16 am
  16       16       17 1
  17       17       18 1
  18       17       19 1
  19       13       20 1
  20       20       10 1
  21       20       21 1
  22       21       22 1
  23       22       23 2
  24       23       24 1
  25       24       25 ar
  26       25       26 ar
  27       26       27 1
  28       26       28 ar
  29       28       29 ar
  30       29       30 ar
  31       30       24 ar
  32       30       31 1
  33       31       22 1
  34        9       32 1
  35       32       33 1
  36       33        5 1
  37        5       34 1
  38        1       35 1
  39        1       36 1
  40        1       37 1
  41        2       38 1
  42        2       39 1
  43        3       40 1
  44        3       41 1
  45        6       42 1
  46        6       43 1
  47        7       44 1
  48        7       45 1
  49        8       46 1
  50        8       47 1
  51       16       48 1
  52       17       49 1
  53       18       50 1
  54       18       51 1
  55       18       52 1
  56       19       53 1
  57       19       54 1
  58       19       55 1
  59       21       56 1
  60       21       57 1
  61       25       58 1
  62       28       59 1
  63       29       60 1
  64       32       61 1
  65       32       62 1
  66       33       63 1
  67       33       64 1

@<TRIPOS>MOLECULE

  64   67
SMALL
USER_CHARGES
@<TRIPOS>ATOM
   1 C1           4.2253    -2.4656     1.9272 C.3          1    LIG   0.0000
   2 C2           2.8194    -3.0160     1.7511 C.3          1    LIG   0.0000
   3 C3           2.4613    -3.0279     0.2739 C.3          1    LIG   0.0000
   4 O4           1.0597    -2.8549     0.1252 O.3          1    LIG   0.0000
   5 C5           0.6005    -1.5554     0.4581 C.3          1    LIG   0.0000
   6 C6           1.4644    -0.4891    -0.2057 C.3          1    LIG   0.0000
   7 C7           1.2679     0.9098     0.3666 C.3          1    LIG   0.0000
   8 C8           0.1916     1.7178    -0.3495 C.3          1    LIG   0.0000
   9 N9          -1.0226     0.9223    -0.5967 N.pl3        1    LIG   0.0000
  10 C10         -1.7631     1.1255    -1.7665 C.2          1    LIG   0.0000
  11 N11         -1.3400     1.6939    -2.8705 N.2          1    LIG   0.0000
  12 N12         -2.3251     1.7160    -3.7506 N.2          1    LIG   0.0000
  13 C13         -3.3898     1.1504    -3.2449 C.2          1    LIG   0.0000
  14 C14         -4.6691     0.9740    -3.9026 C.2          1    LIG   0.0000
  15 O15         -4.9533    -0.0862    -4.3875 O.2          1    LIG   0.0000
  16 N16         -5.5539     2.0177    -3.9707 N.am         1    LIG   0.0000
  17 C17         -6.8516     1.8387    -4.6379 C.3          1    LIG   0.0000
  18 C18         -7.4137     0.4691    -4.2935 C.3          1    LIG   0.0000
  19 C19         -7.8160     2.9152    -4.1673 C.3          1    LIG   0.0000
  20 N20         -3.0607     0.7724    -1.9816 N.pl3        1    LIG   0.0000
  21 C21         -3.9455     0.0942    -1.0253 C.3          1    LIG   0.0000
  22 C22         -3.4853    -1.3405    -0.8396 C.2          1    LIG   0.0000
  23 N23         -3.2631    -1.9723     0.2845 N.2          1    LIG   0.0000
  24 C24         -2.8476    -3.2792     0.1698 C.ar         1    LIG   0.0000
  25 C25         -2.5176    -4.2774     1.0845 C.ar         1    LIG   0.0000
  26 C26         -2.1177    -5.5535     0.6901 C.ar         1    LIG   0.0000
  27 Cl27        -1.6995    -6.8232     1.8639 Cl           1    LIG   0.0000
  28 C28         -2.0239    -5.9050    -0.6498 C.ar         1    LIG   0.0000
  29 C29         -2.3420    -4.9622    -1.6138 C.ar         1    LIG   0.0000
  30 C30         -2.7263    -3.7206    -1.1302 C.ar         1    LIG   0.0000
  31 S31         -3.1602    -2.4105    -2.1198 S.3          1    LIG   0.0000
  32 C32         -1.4904    -0.1017     0.3556 C.3          1    LIG   0.0000
  33 C33         -0.8781    -1.4729     0.1020 C.3          1    LIG   0.0000
  34 H            0.6841    -1.4450     1.4485 H            1    LIG   0.0000
  35 H            4.4609    -2.4578     2.8990 H            1    LIG   0.0000
  36 H            4.8739    -3.0432     1.4315 H            1    LIG   0.0000
  37 H            4.2659    -1.5337     1.5668 H            1    LIG   0.0000
  38 H            2.7787    -3.9480     2.1114 H            1    LIG   0.0000
  39 H            2.1708    -2.4384     2.2467 H            1    LIG   0.0000
  40 H            2.9402    -2.2833    -0.1912 H            1    LIG   0.0000
  41 H            2.7338    -3.9020    -0.1282 H            1    LIG   0.0000
  42 H            1.2412    -0.4648    -1.1801 H            1    LIG   0.0000
  43 H            2.4243    -0.7446    -0.0898 H            1    LIG   0.0000
  44 H            1.0106     0.8241     1.3292 H            1    LIG   0.0000
  45 H            2.1340     1.4047     0.2959 H            1    LIG   0.0000
  46 H           -0.0491     2.5071     0.2154 H            1    LIG   0.0000
  47 H            0.5547     2.0336    -1.2261 H            1    LIG   0.0000
  48 H           -5.3171     2.9012    -3.5667 H            1    LIG   0.0000
  49 H           -6.7300     1.9098    -5.6279 H            1    LIG   0.0000
  50 H           -8.2964     0.3474    -4.7474 H            1    LIG   0.0000
  51 H           -6.7792    -0.2391    -4.6032 H            1    LIG   0.0000
  52 H           -7.5353     0.3980    -3.3035 H            1    LIG   0.0000
  53 H           -8.6987     2.7935    -4.6211 H            1    LIG   0.0000
  54 H           -7.9375     2.8441    -3.1772 H            1    LIG   0.0000
  55 H           -7.4461     3.8163    -4.3938 H            1    LIG   0.0000
  56 H           -4.8823     0.1011    -1.3753 H            1    LIG   0.0000
  57 H           -3.9144     0.5707    -0.1467 H            1    LIG   0.0000
  58 H           -2.5696    -4.0704     2.0614 H            1    LIG   0.0000
  59 H           -1.7314    -6.8238    -0.9148 H            1    LIG   0.0000
  60 H           -2.2976    -5.1634    -2.5923 H            1    LIG   0.0000
  61 H           -2.4846    -0.1775     0.2793 H            1    LIG   0.0000
  62 H           -1.2482     0.1893     1.2811 H            1    LIG   0.0000
  63 H           -1.3735    -2.1467     0.6503 H            1    LIG   0.0000
  64 H           -0.9823    -1.6912    -0.8683 H            1    LIG   0.0000
@<TRIPOS>BOND
   1        1        2 1
   2        2        3 1
   3        3        4 1
   4        4        5 1
   5        5        6 1
   6        6        7 1
   7        7        8 1
   8        8        9 1
   9        9       10 1
  10       10       11 2
  11       11       12 1
  12       12       13 2
  13       13       14 1
  14       14       15 2
  15       14       16 am
  16       16       17 1
  17       17       18 1
  18       17       19 1
  19       13       20 1
  20       20       10 1
  21       20       21 1
  22       21       22 1
  23       22       23 2
  24       23       24 1
  25       24       25 ar
  26       25       26 ar
  27       26       27 1
  28       26       28 ar
  29       28       29 ar
  30       29       30 ar
  31       30       24 ar
  32       30       31 1
  33       31       22 1
  34        9       32 1
  35       32       33 1
  36       33        5 1
  37        5       34 1
  38        1       35 1
  39        1       36 1
  40        1       37 1
  41        2       38 1
  42        2       39 1
  43        3       40 1
  44        3       41 1
  45        6       42 1
  46        6       43 1
  47        7       44 1
  48        7       45 1
  49        8       46 1
  50        8       47 1
  51       16       48 1
  52       17       49 1
  53       18       50 1
  54       18       51 1
  55       18       52 1
  56       19       53 1
  57       19       54 1
  58       19       55 1
  59       21       56 1
  60       21       57 1
  61       25       58 1
  62       28       59 1
  63       29       60 1
  64       32       61 1
  65       32       62 1
  66       33       63 1
  67       33       64 1

@<TRIPOS>MOLECULE

  64   67
SMALL
USER_CHARGES
@<TRIPOS>ATOM
   1 C1           3.9767    -3.4425     2.3790 C.3          1    LIG   0.0000
   2 C2           2.5290    -3.1814     1.9961 C.3          1    LIG   0.0000
   3 C3           2.4121    -3.0988     0.4829 C.3          1    LIG   0.0000
   4 O4           1.0597    -2.8549     0.1252 O.3          1    LIG   0.0000
   5 C5           0.6005    -1.5554     0.4581 C.3          1    LIG   0.0000
   6 C6           1.4644    -0.4891    -0.2057 C.3          1    LIG   0.0000
   7 C7           1.2679     0.9098     0.3666 C.3          1    LIG   0.0000
   8 C8           0.1916     1.7178    -0.3495 C.3          1    LIG   0.0000
   9 N9          -1.0226     0.9223    -0.5967 N.pl3        1    LIG   0.0000
  10 C10         -1.7631     1.1255    -1.7665 C.2          1    LIG   0.0000
  11 N11         -1.3400     1.6939    -2.8705 N.2          1    LIG   0.0000
  12 N12         -2.3251     1.7160    -3.7506 N.2          1    LIG   0.0000
  13 C13         -3.3898     1.1504    -3.2449 C.2          1    LIG   0.0000
  14 C14         -4.6691     0.9740    -3.9026 C.2          1    LIG   0.0000
  15 O15         -5.6581     1.4650    -3.4327 O.2          1    LIG   0.0000
  16 N16         -4.7493     0.2467    -5.0608 N.am         1    LIG   0.0000
  17 C17         -6.0469     0.0678    -5.7280 C.3          1    LIG   0.0000
  18 C18         -5.9796     0.6486    -7.1310 C.3          1    LIG   0.0000
  19 C19         -6.3752    -1.4142    -5.8083 C.3          1    LIG   0.0000
  20 N20         -3.0607     0.7724    -1.9816 N.pl3        1    LIG   0.0000
  21 C21         -3.9455     0.0942    -1.0253 C.3          1    LIG   0.0000
  22 C22         -3.4853    -1.3405    -0.8396 C.2          1    LIG   0.0000
  23 N23         -3.2631    -1.9723     0.2845 N.2          1    LIG   0.0000
  24 C24         -2.8476    -3.2792     0.1698 C.ar         1    LIG   0.0000
  25 C25         -2.5176    -4.2774     1.0845 C.ar         1    LIG   0.0000
  26 C26         -2.1177    -5.5535     0.6901 C.ar         1    LIG   0.0000
  27 Cl27        -1.6995    -6.8232     1.8639 Cl           1    LIG   0.0000
  28 C28         -2.0239    -5.9050    -0.6498 C.ar         1    LIG   0.0000
  29 C29         -2.3420    -4.9622    -1.6138 C.ar         1    LIG   0.0000
  30 C30         -2.7263    -3.7206    -1.1302 C.ar         1    LIG   0.0000
  31 S31         -3.1602    -2.4105    -2.1198 S.3          1    LIG   0.0000
  32 C32         -1.4904    -0.1017     0.3556 C.3          1    LIG   0.0000
  33 C33         -0.8781    -1.4729     0.1020 C.3          1    LIG   0.0000
  34 H            0.6841    -1.4450     1.4485 H            1    LIG   0.0000
  35 H            4.0536    -3.4969     3.3746 H            1    LIG   0.0000
  36 H            4.2782    -4.3056     1.9738 H            1    LIG   0.0000
  37 H            4.5506    -2.6968     2.0406 H            1    LIG   0.0000
  38 H            1.9550    -3.9271     2.3346 H            1    LIG   0.0000
  39 H            2.2275    -2.3184     2.4014 H            1    LIG   0.0000
  40 H            2.9861    -2.3531     0.1445 H            1    LIG   0.0000
  41 H            2.7136    -3.9618     0.0777 H            1    LIG   0.0000
  42 H            1.2412    -0.4648    -1.1801 H            1    LIG   0.0000
  43 H            2.4243    -0.7446    -0.0898 H            1    LIG   0.0000
  44 H            1.0106     0.8241     1.3292 H            1    LIG   0.0000
  45 H            2.1340     1.4047     0.2959 H            1    LIG   0.0000
  46 H           -0.0491     2.5071     0.2154 H            1    LIG   0.0000
  47 H            0.5547     2.0336    -1.2261 H            1    LIG   0.0000
  48 H           -3.9251    -0.1624    -5.4524 H            1    LIG   0.0000
  49 H           -6.7579     0.5389    -5.2059 H            1    LIG   0.0000
  50 H           -6.8623     0.5269    -7.5849 H            1    LIG   0.0000
  51 H           -5.7636     1.6236    -7.0781 H            1    LIG   0.0000
  52 H           -5.2686     0.1775    -7.6531 H            1    LIG   0.0000
  53 H           -7.2579    -1.5359    -6.2622 H            1    LIG   0.0000
  54 H           -5.6642    -1.8853    -6.3304 H            1    LIG   0.0000
  55 H           -6.4194    -1.7963    -4.8853 H            1    LIG   0.0000
  56 H           -4.8823     0.1011    -1.3753 H            1    LIG   0.0000
  57 H           -3.9144     0.5707    -0.1467 H            1    LIG   0.0000
  58 H           -2.5696    -4.0704     2.0614 H            1    LIG   0.0000
  59 H           -1.7314    -6.8238    -0.9148 H            1    LIG   0.0000
  60 H           -2.2976    -5.1634    -2.5923 H            1    LIG   0.0000
  61 H           -2.4846    -0.1775     0.2793 H            1    LIG   0.0000
  62 H           -1.2482     0.1893     1.2811 H            1    LIG   0.0000
  63 H           -1.3735    -2.1467     0.6503 H            1    LIG   0.0000
  64 H           -0.9823    -1.6912    -0.8683 H            1    LIG   0.0000
@<TRIPOS>BOND
   1        1        2 1
   2        2        3 1
   3        3        4 1
   4        4        5 1
   5        5        6 1
   6        6        7 1
   7        7        8 1
   8        8        9 1
   9        9       10 1
  10       10       11 2
  11       11       12 1
  12       12       13 2
  13       13       14 1
  14       14       15 2
  15       14       16 am
  16       16       17 1
  17       17       18 1
  18       17       19 1
  19       13       20 1
  20       20       10 1
  21       20       21 1
  22       21       22 1
  23       22       23 2
  24       23       24 1
  25       24       25 ar
  26       25       26 ar
  27       26       27 1
  28       26       28 ar
  29       28       29 ar
  30       29       30 ar
  31       30       24 ar
  32       30       31 1
  33       31       22 1
  34        9       32 1
  35       32       33 1
  36       33        5 1
  37        5       34 1
  38        1       35 1
  39        1       36 1
  40        1       37 1
  41        2       38 1
  42        2       39 1
  43        3       40 1
  44        3       41 1
  45        6       42 1
  46        6       43 1
  47        7       44 1
  48        7       45 1
  49        8       46 1
  50        8       47 1
  51       16       48 1
  52       17       49 1
  53       18       50 1
  54       18       51 1
  55       18       52 1
  56       19       53 1
  57       19       54 1
  58       19       55 1
  59       21       56 1
  60       21       57 1
  61       25       58 1
  62       28       59 1
  63       29       60 1
  64       32       61 1
  65       32       62 1
  66       33       63 1
  67       33       64 1

@<TRIPOS>MOLECULE

  64   67
SMALL
USER_CHARGES
@<TRIPOS>ATOM
   1 C1           4.5880    -2.8540    -0.9941 C.3          1    LIG   0.0000
   2 C2           3.1033    -3.1631    -1.0972 C.3          1    LIG   0.0000
   3 C3           2.4613    -3.0279     0.2739 C.3          1    LIG   0.0000
   4 O4           1.0597    -2.8549     0.1252 O.3          1    LIG   0.0000
   5 C5           0.6005    -1.5554     0.4581 C.3          1    LIG   0.0000
   6 C6           1.4644    -0.4891    -0.2057 C.3          1    LIG   0.0000
   7 C7           1.2679     0.9098     0.3666 C.3          1    LIG   0.0000
   8 C8           0.1916     1.7178    -0.3495 C.3          1    LIG   0.0000
   9 N9          -1.0226     0.9223    -0.5967 N.pl3        1    LIG   0.0000
  10 C10         -1.7631     1.1255    -1.7665 C.2          1    LIG   0.0000
  11 N11         -1.3400     1.6939    -2.8705 N.2          1    LIG   0.0000
  12 N12         -2.3251     1.7160    -3.7506 N.2          1    LIG   0.0000
  13 C13         -3.3898     1.1504    -3.2449 C.2          1    LIG   0.0000
  14 C14         -4.6691     0.9740    -3.9026 C.2          1    LIG   0.0000
  15 O15         -5.6581     1.4650    -3.4327 O.2          1    LIG   0.0000
  16 N16         -4.7493     0.2467    -5.0608 N.am         1    LIG   0.0000
  17 C17         -6.0469     0.0678    -5.7280 C.3          1    LIG   0.0000
  18 C18         -5.9796     0.6486    -7.1310 C.3          1    LIG   0.0000
  19 C19         -6.3752    -1.4142    -5.8083 C.3          1    LIG   0.0000
  20 N20         -3.0607     0.7724    -1.9816 N.pl3        1    LIG   0.0000
  21 C21         -3.9455     0.0942    -1.0253 C.3          1    LIG   0.0000
  22 C22         -3.4853    -1.3405    -0.8396 C.2          1    LIG   0.0000
  23 N23         -3.2631    -1.9723     0.2845 N.2          1    LIG   0.0000
  24 C24         -2.8476    -3.2792     0.1698 C.ar         1    LIG   0.0000
  25 C25         -2.5176    -4.2774     1.0845 C.ar         1    LIG   0.0000
  26 C26         -2.1177    -5.5535     0.6901 C.ar         1    LIG   0.0000
  27 Cl27        -1.6995    -6.8232     1.8639 Cl           1    LIG   0.0000
  28 C28         -2.0239    -5.9050    -0.6498 C.ar         1    LIG   0.0000
  29 C29         -2.3420    -4.9622    -1.6138 C.ar         1    LIG   0.0000
  30 C30         -2.7263    -3.7206    -1.1302 C.ar         1    LIG   0.0000
  31 S31         -3.1602    -2.4105    -2.1198 S.3          1    LIG   0.0000
  32 C32         -1.4904    -0.1017     0.3556 C.3          1    LIG   0.0000
  33 C33         -0.8781    -1.4729     0.1020 C.3          1    LIG   0.0000
  34 H            0.6841    -1.4450     1.4485 H            1    LIG   0.0000
  35 H            5.0104    -2.9430    -1.8962 H            1    LIG   0.0000
  36 H            4.7116    -1.9200    -0.6589 H            1    LIG   0.0000
  37 H            5.0188    -3.4957    -0.3595 H            1    LIG   0.0000
  38 H            2.6725    -2.5215    -1.7318 H            1    LIG   0.0000
  39 H            2.9798    -4.0972    -1.4324 H            1    LIG   0.0000
  40 H            2.6404    -3.8536     0.8088 H            1    LIG   0.0000
  41 H            2.8468    -2.2349     0.7457 H            1    LIG   0.0000
  42 H            1.2412    -0.4648    -1.1801 H            1    LIG   0.0000
  43 H            2.4243    -0.7446    -0.0898 H            1    LIG   0.0000
  44 H            1.0106     0.8241     1.3292 H            1    LIG   0.0000
  45 H            2.1340     1.4047     0.2959 H            1    LIG   0.0000
  46 H           -0.0491     2.5071     0.2154 H            1    LIG   0.0000
  47 H            0.5547     2.0336    -1.2261 H            1    LIG   0.0000
  48 H           -3.9251    -0.1624    -5.4524 H            1    LIG   0.0000
  49 H           -6.7579     0.5389    -5.2059 H            1    LIG   0.0000
  50 H           -6.8623     0.5269    -7.5849 H            1    LIG   0.0000
  51 H           -5.7636     1.6236    -7.0781 H            1    LIG   0.0000
  52 H           -5.2686     0.1775    -7.6531 H            1    LIG   0.0000
  53 H           -7.2579    -1.5359    -6.2622 H            1    LIG   0.0000
  54 H           -5.6642    -1.8853    -6.3304 H            1    LIG   0.0000
  55 H           -6.4194    -1.7963    -4.8853 H            1    LIG   0.0000
  56 H           -4.8823     0.1011    -1.3753 H            1    LIG   0.0000
  57 H           -3.9144     0.5707    -0.1467 H            1    LIG   0.0000
  58 H           -2.5696    -4.0704     2.0614 H            1    LIG   0.0000
  59 H           -1.7314    -6.8238    -0.9148 H            1    LIG   0.0000
  60 H           -2.2976    -5.1634    -2.5923 H            1    LIG   0.0000
  61 H           -2.4846    -0.1775     0.2793 H            1    LIG   0.0000
  62 H           -1.2482     0.1893     1.2811 H            1    LIG   0.0000
  63 H           -1.3735    -2.1467     0.6503 H            1    LIG   0.0000
  64 H           -0.9823    -1.6912    -0.8683 H            1    LIG   0.0000
@<TRIPOS>BOND
   1        1        2 1
   2        2        3 1
   3        3        4 1
   4        4        5 1
   5        5        6 1
   6        6        7 1
   7        7        8 1
   8        8        9 1
   9        9       10 1
  10       10       11 2
  11       11       12 1
  12       12       13 2
  13       13       14 1
  14       14       15 2
  15       14       16 am
  16       16       17 1
  17       17       18 1
  18       17       19 1
  19       13       20 1
  20       20       10 1
  21       20       21 1
  22       21       22 1
  23       22       23 2
  24       23       24 1
  25       24       25 ar
  26       25       26 ar
  27       26       27 1
  28       26       28 ar
  29       28       29 ar
  30       29       30 ar
  31       30       24 ar
  32       30       31 1
  33       31       22 1
  34        9       32 1
  35       32       33 1
  36       33        5 1
  37        5       34 1
  38        1       35 1
  39        1       36 1
  40        1       37 1
  41        2       38 1
  42        2       39 1
  43        3       40 1
  44        3       41 1
  45        6       42 1
  46        6       43 1
  47        7       44 1
  48        7       45 1
  49        8       46 1
  50        8       47 1
  51       16       48 1
  52       17       49 1
  53       18       50 1
  54       18       51 1
  55       18       52 1
  56       19       53 1
  57       19       54 1
  58       19       55 1
  59       21       56 1
  60       21       57 1
  61       25       58 1
  62       28       59 1
  63       29       60 1
  64       32       61 1
  65       32       62 1
  66       33       63 1
  67       33       64 1

@<TRIPOS>MOLECULE

  64   67
SMALL
USER_CHARGES
@<TRIPOS>ATOM
   1 C1           1.0731    -6.1835     1.6548 C.3          1    LIG   0.0000
   2 C2           1.0475    -5.2311     0.4704 C.3          1    LIG   0.0000
   3 C3           0.4864    -3.8891     0.9114 C.3          1    LIG   0.0000
   4 O4           1.0597    -2.8549     0.1252 O.3          1    LIG   0.0000
   5 C5           0.6005    -1.5554     0.4581 C.3          1    LIG   0.0000
   6 C6           1.4644    -0.4891    -0.2057 C.3          1    LIG   0.0000
   7 C7           1.2679     0.9098     0.3666 C.3          1    LIG   0.0000
   8 C8           0.1916     1.7178    -0.3495 C.3          1    LIG   0.0000
   9 N9          -1.0226     0.9223    -0.5967 N.pl3        1    LIG   0.0000
  10 C10         -1.7631     1.1255    -1.7665 C.2          1    LIG   0.0000
  11 N11         -1.3400     1.6939    -2.8705 N.2          1    LIG   0.0000
  12 N12         -2.3251     1.7160    -3.7506 N.2          1    LIG   0.0000
  13 C13         -3.3898     1.1504    -3.2449 C.2          1    LIG   0.0000
  14 C14         -4.6691     0.9740    -3.9026 C.2          1    LIG   0.0000
  15 O15         -5.6581     1.4650    -3.4327 O.2          1    LIG   0.0000
  16 N16         -4.7493     0.2467    -5.0608 N.am         1    LIG   0.0000
  17 C17         -6.0469     0.0678    -5.7280 C.3          1    LIG   0.0000
  18 C18         -5.9796     0.6486    -7.1310 C.3          1    LIG   0.0000
  19 C19         -6.3752    -1.4142    -5.8083 C.3          1    LIG   0.0000
  20 N20         -3.0607     0.7724    -1.9816 N.pl3        1    LIG   0.0000
  21 C21         -3.9455     0.0942    -1.0253 C.3          1    LIG   0.0000
  22 C22         -3.4853    -1.3405    -0.8396 C.2          1    LIG   0.0000
  23 N23         -3.2631    -1.9723     0.2845 N.2          1    LIG   0.0000
  24 C24         -2.8476    -3.2792     0.1698 C.ar         1    LIG   0.0000
  25 C25         -2.5176    -4.2774     1.0845 C.ar         1    LIG   0.0000
  26 C26         -2.1177    -5.5535     0.6901 C.ar         1    LIG   0.0000
  27 Cl27        -1.6995    -6.8232     1.8639 Cl           1    LIG   0.0000
  28 C28         -2.0239    -5.9050    -0.6498 C.ar         1    LIG   0.0000
  29 C29         -2.3420    -4.9622    -1.6138 C.ar         1    LIG   0.0000
  30 C30         -2.7263    -3.7206    -1.1302 C.ar         1    LIG   0.0000
  31 S31         -3.1602    -2.4105    -2.1198 S.3          1    LIG   0.0000
  32 C32         -1.4904    -0.1017     0.3556 C.3          1    LIG   0.0000
  33 C33         -0.8781    -1.4729     0.1020 C.3          1    LIG   0.0000
  34 H            0.6841    -1.4450     1.4485 H            1    LIG   0.0000
  35 H            1.4423    -7.0664     1.3646 H            1    LIG   0.0000
  36 H            1.6502    -5.8019     2.3768 H            1    LIG   0.0000
  37 H            0.1438    -6.3086     2.0021 H            1    LIG   0.0000
  38 H            1.9768    -5.1059     0.1231 H            1    LIG   0.0000
  39 H            0.4703    -5.6126    -0.2517 H            1    LIG   0.0000
  40 H           -0.5064    -3.8873     0.7918 H            1    LIG   0.0000
  41 H            0.7063    -3.7362     1.8749 H            1    LIG   0.0000
  42 H            1.2412    -0.4648    -1.1801 H            1    LIG   0.0000
  43 H            2.4243    -0.7446    -0.0898 H            1    LIG   0.0000
  44 H            1.0106     0.8241     1.3292 H            1    LIG   0.0000
  45 H            2.1340     1.4047     0.2959 H            1    LIG   0.0000
  46 H           -0.0491     2.5071     0.2154 H            1    LIG   0.0000
  47 H            0.5547     2.0336    -1.2261 H            1    LIG   0.0000
  48 H           -3.9251    -0.1624    -5.4524 H            1    LIG   0.0000
  49 H           -6.7579     0.5389    -5.2059 H            1    LIG   0.0000
  50 H           -6.8623     0.5269    -7.5849 H            1    LIG   0.0000
  51 H           -5.7636     1.6236    -7.0781 H            1    LIG   0.0000
  52 H           -5.2686     0.1775    -7.6531 H            1    LIG   0.0000
  53 H           -7.2579    -1.5359    -6.2622 H            1    LIG   0.0000
  54 H           -5.6642    -1.8853    -6.3304 H            1    LIG   0.0000
  55 H           -6.4194    -1.7963    -4.8853 H            1    LIG   0.0000
  56 H           -4.8823     0.1011    -1.3753 H            1    LIG   0.0000
  57 H           -3.9144     0.5707    -0.1467 H            1    LIG   0.0000
  58 H           -2.5696    -4.0704     2.0614 H            1    LIG   0.0000
  59 H           -1.7314    -6.8238    -0.9148 H            1    LIG   0.0000
  60 H           -2.2976    -5.1634    -2.5923 H            1    LIG   0.0000
  61 H           -2.4846    -0.1775     0.2793 H            1    LIG   0.0000
  62 H           -1.2482     0.1893     1.2811 H            1    LIG   0.0000
  63 H           -1.3735    -2.1467     0.6503 H            1    LIG   0.0000
  64 H           -0.9823    -1.6912    -0.8683 H            1    LIG   0.0000
@<TRIPOS>BOND
   1        1        2 1
   2        2        3 1
   3        3        4 1
   4        4        5 1
   5        5        6 1
   6        6        7 1
   7        7        8 1
   8        8        9 1
   9        9       10 1
  10       10       11 2
  11       11       12 1
  12       12       13 2
  13       13       14 1
  14       14       15 2
  15       14       16 am
  16       16       17 1
  17       17       18 1
  18       17       19 1
  19       13       20 1
  20       20       10 1
  21       20       21 1
  22       21       22 1
  23       22       23 2
  24       23       24 1
  25       24       25 ar
  26       25       26 ar
  27       26       27 1
  28       26       28 ar
  29       28       29 ar
  30       29       30 ar
  31       30       24 ar
  32       30       31 1
  33       31       22 1
  34        9       32 1
  35       32       33 1
  36       33        5 1
  37        5       34 1
  38        1       35 1
  39        1       36 1
  40        1       37 1
  41        2       38 1
  42        2       39 1
  43        3       40 1
  44        3       41 1
  45        6       42 1
  46        6       43 1
  47        7       44 1
  48        7       45 1
  49        8       46 1
  50        8       47 1
  51       16       48 1
  52       17       49 1
  53       18       50 1
  54       18       51 1
  55       18       52 1
  56       19       53 1
  57       19       54 1
  58       19       55 1
  59       21       56 1
  60       21       57 1
  61       25       58 1
  62       28       59 1
  63       29       60 1
  64       32       61 1
  65       32       62 1
  66       33       63 1
  67       33       64 1

@<TRIPOS>MOLECULE

  64   67
SMALL
USER_CHARGES
@<TRIPOS>ATOM
   1 C1          -0.0295    -4.3210     3.3007 C.3          1    LIG   0.0000
   2 C2           1.0200    -3.8007     2.3319 C.3          1    LIG   0.0000
   3 C3           0.4864    -3.8891     0.9114 C.3          1    LIG   0.0000
   4 O4           1.0597    -2.8549     0.1252 O.3          1    LIG   0.0000
   5 C5           0.6005    -1.5554     0.4581 C.3          1    LIG   0.0000
   6 C6           1.4644    -0.4891    -0.2057 C.3          1    LIG   0.0000
   7 C7           1.2679     0.9098     0.3666 C.3          1    LIG   0.0000
   8 C8           0.1916     1.7178    -0.3495 C.3          1    LIG   0.0000
   9 N9          -1.0226     0.9223    -0.5967 N.pl3        1    LIG   0.0000
  10 C10         -1.7631     1.1255    -1.7665 C.2          1    LIG   0.0000
  11 N11         -1.3400     1.6939    -2.8705 N.2          1    LIG   0.0000
  12 N12         -2.3251     1.7160    -3.7506 N.2          1    LIG   0.0000
  13 C13         -3.3898     1.1504    -3.2449 C.2          1    LIG   0.0000
  14 C14         -4.6691     0.9740    -3.9026 C.2          1    LIG   0.0000
  15 O15         -5.6581     1.4650    -3.4327 O.2          1    LIG   0.0000
  16 N16         -4.7493     0.2467    -5.0608 N.am         1    LIG   0.0000
  17 C17         -6.0469     0.0678    -5.7280 C.3          1    LIG   0.0000
  18 C18         -5.9770    -1.1321    -6.6585 C.3          1    LIG   0.0000
  19 C19         -7.1262    -0.1637    -4.6830 C.3          1    LIG   0.0000
  20 N20         -3.0607     0.7724    -1.9816 N.pl3        1    LIG   0.0000
  21 C21         -3.9455     0.0942    -1.0253 C.3          1    LIG   0.0000
  22 C22         -3.4853    -1.3405    -0.8396 C.2          1    LIG   0.0000
  23 N23         -3.2631    -1.9723     0.2845 N.2          1    LIG   0.0000
  24 C24         -2.8476    -3.2792     0.1698 C.ar         1    LIG   0.0000
  25 C25         -2.5176    -4.2774     1.0845 C.ar         1    LIG   0.0000
  26 C26         -2.1177    -5.5535     0.6901 C.ar         1    LIG   0.0000
  27 Cl27        -1.6995    -6.8232     1.8639 Cl           1    LIG   0.0000
  28 C28         -2.0239    -5.9050    -0.6498 C.ar         1    LIG   0.0000
  29 C29         -2.3420    -4.9622    -1.6138 C.ar         1    LIG   0.0000
  30 C30         -2.7263    -3.7206    -1.1302 C.ar         1    LIG   0.0000
  31 S31         -3.1602    -2.4105    -2.1198 S.3          1    LIG   0.0000
  32 C32         -1.4904    -0.1017     0.3556 C.3          1    LIG   0.0000
  33 C33         -0.8781    -1.4729     0.1020 C.3          1    LIG   0.0000
  34 H            0.6841    -1.4450     1.4485 H            1    LIG   0.0000
  35 H            0.3216    -4.2628     4.2352 H            1    LIG   0.0000
  36 H           -0.8593    -3.7686     3.2214 H            1    LIG   0.0000
  37 H           -0.2411    -5.2737     3.0828 H            1    LIG   0.0000
  38 H            1.2316    -2.8480     2.5499 H            1    LIG   0.0000
  39 H            1.8498    -4.3530     2.4113 H            1    LIG   0.0000
  40 H            0.7263    -4.7774     0.5199 H            1    LIG   0.0000
  41 H           -0.5084    -3.7872     0.9221 H            1    LIG   0.0000
  42 H            1.2412    -0.4648    -1.1801 H            1    LIG   0.0000
  43 H            2.4243    -0.7446    -0.0898 H            1    LIG   0.0000
  44 H            1.0106     0.8241     1.3292 H            1    LIG   0.0000
  45 H            2.1340     1.4047     0.2959 H            1    LIG   0.0000
  46 H           -0.0491     2.5071     0.2154 H            1    LIG   0.0000
  47 H            0.5547     2.0336    -1.2261 H            1    LIG   0.0000
  48 H           -3.9251    -0.1624    -5.4524 H            1    LIG   0.0000
  49 H           -6.2655     0.8877    -6.2571 H            1    LIG   0.0000
  50 H           -6.8597    -1.2538    -7.1124 H            1    LIG   0.0000
  51 H           -5.2669    -0.9798    -7.3460 H            1    LIG   0.0000
  52 H           -5.7583    -1.9520    -6.1294 H            1    LIG   0.0000
  53 H           -8.0089    -0.2854    -5.1369 H            1    LIG   0.0000
  54 H           -6.9076    -0.9835    -4.1539 H            1    LIG   0.0000
  55 H           -7.1722     0.6257    -4.0708 H            1    LIG   0.0000
  56 H           -4.8823     0.1011    -1.3753 H            1    LIG   0.0000
  57 H           -3.9144     0.5707    -0.1467 H            1    LIG   0.0000
  58 H           -2.5696    -4.0704     2.0614 H            1    LIG   0.0000
  59 H           -1.7314    -6.8238    -0.9148 H            1    LIG   0.0000
  60 H           -2.2976    -5.1634    -2.5923 H            1    LIG   0.0000
  61 H           -2.4846    -0.1775     0.2793 H            1    LIG   0.0000
  62 H           -1.2482     0.1893     1.2811 H            1    LIG   0.0000
  63 H           -1.3735    -2.1467     0.6503 H            1    LIG   0.0000
  64 H           -0.9823    -1.6912    -0.8683 H            1    LIG   0.0000
@<TRIPOS>BOND
   1        1        2 1
   2        2        3 1
   3        3        4 1
   4        4        5 1
   5        5        6 1
   6        6        7 1
   7        7        8 1
   8        8        9 1
   9        9       10 1
  10       10       11 2
  11       11       12 1
  12       12       13 2
  13       13       14 1
  14       14       15 2
  15       14       16 am
  16       16       17 1
  17       17       18 1
  18       17       19 1
  19       13       20 1
  20       20       10 1
  21       20       21 1
  22       21       22 1
  23       22       23 2
  24       23       24 1
  25       24       25 ar
  26       25       26 ar
  27       26       27 1
  28       26       28 ar
  29       28       29 ar
  30       29       30 ar
  31       30       24 ar
  32       30       31 1
  33       31       22 1
  34        9       32 1
  35       32       33 1
  36       33        5 1
  37        5       34 1
  38        1       35 1
  39        1       36 1
  40        1       37 1
  41        2       38 1
  42        2       39 1
  43        3       40 1
  44        3       41 1
  45        6       42 1
  46        6       43 1
  47        7       44 1
  48        7       45 1
  49        8       46 1
  50        8       47 1
  51       16       48 1
  52       17       49 1
  53       18       50 1
  54       18       51 1
  55       18       52 1
  56       19       53 1
  57       19       54 1
  58       19       55 1
  59       21       56 1
  60       21       57 1
  61       25       58 1
  62       28       59 1
  63       29       60 1
  64       32       61 1
  65       32       62 1
  66       33       63 1
  67       33       64 1

@<TRIPOS>MOLECULE

  64   67
SMALL
USER_CHARGES
@<TRIPOS>ATOM
   1 C1           3.7702    -5.1942     0.8999 C.3          1    LIG   0.0000
   2 C2           3.0330    -4.2172    -0.0015 C.3          1    LIG   0.0000
   3 C3           2.2101    -3.2642     0.8501 C.3          1    LIG   0.0000
   4 O4           1.0597    -2.8549     0.1252 O.3          1    LIG   0.0000
   5 C5           0.6005    -1.5554     0.4581 C.3          1    LIG   0.0000
   6 C6           1.4644    -0.4891    -0.2057 C.3          1    LIG   0.0000
   7 C7           1.2679     0.9098     0.3666 C.3          1    LIG   0.0000
   8 C8           0.1916     1.7178    -0.3495 C.3          1    LIG   0.0000
   9 N9          -1.0226     0.9223    -0.5967 N.pl3        1    LIG   0.0000
  10 C10         -1.7631     1.1255    -1.7665 C.2          1    LIG   0.0000
  11 N11         -1.3400     1.6939    -2.8705 N.2          1    LIG   0.0000
  12 N12         -2.3251     1.7160    -3.7506 N.2          1    LIG   0.0000
  13 C13         -3.3898     1.1504    -3.2449 C.2          1    LIG   0.0000
  14 C14         -4.6691     0.9740    -3.9026 C.2          1    LIG   0.0000
  15 O15         -5.6581     1.4650    -3.4327 O.2          1    LIG   0.0000
  16 N16         -4.7493     0.2467    -5.0608 N.am         1    LIG   0.0000
  17 C17         -5.9802    -0.4895    -5.3827 C.3          1    LIG   0.0000
  18 C18         -5.6706    -1.5728    -6.4030 C.3          1    LIG   0.0000
  19 C19         -6.5343    -1.1272    -4.1190 C.3          1    LIG   0.0000
  20 N20         -3.0607     0.7724    -1.9816 N.pl3        1    LIG   0.0000
  21 C21         -3.9455     0.0942    -1.0253 C.3          1    LIG   0.0000
  22 C22         -3.4853    -1.3405    -0.8396 C.2          1    LIG   0.0000
  23 N23         -3.2631    -1.9723     0.2845 N.2          1    LIG   0.0000
  24 C24         -2.8476    -3.2792     0.1698 C.ar         1    LIG   0.0000
  25 C25         -2.5176    -4.2774     1.0845 C.ar         1    LIG   0.0000
  26 C26         -2.1177    -5.5535     0.6901 C.ar         1    LIG   0.0000
  27 Cl27        -1.6995    -6.8232     1.8639 Cl           1    LIG   0.0000
  28 C28         -2.0239    -5.9050    -0.6498 C.ar         1    LIG   0.0000
  29 C29         -2.3420    -4.9622    -1.6138 C.ar         1    LIG   0.0000
  30 C30         -2.7263    -3.7206    -1.1302 C.ar         1    LIG   0.0000
  31 S31         -3.1602    -2.4105    -2.1198 S.3          1    LIG   0.0000
  32 C32         -1.4904    -0.1017     0.3556 C.3          1    LIG   0.0000
  33 C33         -0.8781    -1.4729     0.1020 C.3          1    LIG   0.0000
  34 H            0.6841    -1.4450     1.4485 H            1    LIG   0.0000
  35 H            4.3115    -5.8212     0.3396 H            1    LIG   0.0000
  36 H            4.3759    -4.6888     1.5144 H            1    LIG   0.0000
  37 H            3.1082    -5.7154     1.4385 H            1    LIG   0.0000
  38 H            3.6949    -3.6960    -0.5401 H            1    LIG   0.0000
  39 H            2.4273    -4.7227    -0.6161 H            1    LIG   0.0000
  40 H            1.9275    -3.7272     1.6902 H            1    LIG   0.0000
  41 H            2.7616    -2.4625     1.0806 H            1    LIG   0.0000
  42 H            1.2412    -0.4648    -1.1801 H            1    LIG   0.0000
  43 H            2.4243    -0.7446    -0.0898 H            1    LIG   0.0000
  44 H            1.0106     0.8241     1.3292 H            1    LIG   0.0000
  45 H            2.1340     1.4047     0.2959 H            1    LIG   0.0000
  46 H           -0.0491     2.5071     0.2154 H            1    LIG   0.0000
  47 H            0.5547     2.0336    -1.2261 H            1    LIG   0.0000
  48 H           -3.9704     0.2167    -5.6873 H            1    LIG   0.0000
  49 H           -6.6568     0.1418    -5.7617 H            1    LIG   0.0000
  50 H           -6.5080    -2.0736    -6.6219 H            1    LIG   0.0000
  51 H           -5.3061    -1.1533    -7.2343 H            1    LIG   0.0000
  52 H           -4.9941    -2.2041    -6.0240 H            1    LIG   0.0000
  53 H           -7.3717    -1.6280    -4.3379 H            1    LIG   0.0000
  54 H           -5.8577    -1.7585    -3.7400 H            1    LIG   0.0000
  55 H           -6.7380    -0.4145    -3.4477 H            1    LIG   0.0000
  56 H           -4.8823     0.1011    -1.3753 H            1    LIG   0.0000
  57 H           -3.9144     0.5707    -0.1467 H            1    LIG   0.0000
  58 H           -2.5696    -4.0704     2.0614 H            1    LIG   0.0000
  59 H           -1.7314    -6.8238    -0.9148 H            1    LIG   0.0000
  60 H           -2.2976    -5.1634    -2.5923 H            1    LIG   0.0000
  61 H           -2.4846    -0.1775     0.2793 H            1    LIG   0.0000
  62 H           -1.2482     0.1893     1.2811 H            1    LIG   0.0000
  63 H           -1.3735    -2.1467     0.6503 H            1    LIG   0.0000
  64 H           -0.9823    -1.6912    -0.8683 H            1    LIG   0.0000
@<TRIPOS>BOND
   1        1        2 1
   2        2        3 1
   3        3        4 1
   4        4        5 1
   5        5        6 1
   6        6        7 1
   7        7        8 1
   8        8        9 1
   9        9       10 1
  10       10       11 2
  11       11       12 1
  12       12       13 2
  13       13       14 1
  14       14       15 2
  15       14       16 am
  16       16       17 1
  17       17       18 1
  18       17       19 1
  19       13       20 1
  20       20       10 1
  21       20       21 1
  22       21       22 1
  23       22       23 2
  24       23       24 1
  25       24       25 ar
  26       25       26 ar
  27       26       27 1
  28       26       28 ar
  29       28       29 ar
  30       29       30 ar
  31       30       24 ar
  32       30       31 1
  33       31       22 1
  34        9       32 1
  35       32       33 1
  36       33        5 1
  37        5       34 1
  38        1       35 1
  39        1       36 1
  40        1       37 1
  41        2       38 1
  42        2       39 1
  43        3       40 1
  44        3       41 1
  45        6       42 1
  46        6       43 1
  47        7       44 1
  48        7       45 1
  49        8       46 1
  50        8       47 1
  51       16       48 1
  52       17       49 1
  53       18       50 1
  54       18       51 1
  55       18       52 1
  56       19       53 1
  57       19       54 1
  58       19       55 1
  59       21       56 1
  60       21       57 1
  61       25       58 1
  62       28       59 1
  63       29       60 1
  64       32       61 1
  65       32       62 1
  66       33       63 1
  67       33       64 1

