@<TRIPOS>MOLECULE
*****
 64 67 0 0 0
SMALL
USER_CHARGES

@<TRIPOS>ATOM
      1 C1          3.9735   -2.9456    2.4064 C.3     1  LIG1        0.0000
      2 C2          2.5290   -3.1814    1.9961 C.3     1  LIG1        0.0000
      3 C3          2.4121   -3.0988    0.4829 C.3     1  LIG1        0.0000
      4 O4          1.0597   -2.8549    0.1252 O.3     1  LIG1        0.0000
      5 C5          0.6005   -1.5554    0.4581 C.3     1  LIG1        0.0000
      6 C6          1.4644   -0.4891   -0.2057 C.3     1  LIG1        0.0000
      7 C7          1.2679    0.9098    0.3666 C.3     1  LIG1        0.0000
      8 C8          0.1916    1.7178   -0.3495 C.3     1  LIG1        0.0000
      9 N9         -1.0226    0.9223   -0.5967 N.pl3   1  LIG1        0.0000
     10 C10        -1.7631    1.1255   -1.7665 C.cat   1  LIG1        0.0000
     11 N11        -1.3400    1.6939   -2.8705 N.2     1  LIG1        0.0000
     12 N12        -2.3251    1.7160   -3.7506 N.2     1  LIG1        0.0000
     13 C13        -3.3898    1.1504   -3.2449 C.2     1  LIG1        0.0000
     14 C14        -4.6691    0.9740   -3.9026 C.2     1  LIG1        0.0000
     15 O15        -5.1124   -0.1290   -4.0664 O.2     1  LIG1        0.0000
     16 N16        -5.3722    2.0665   -4.3373 N.am    1  LIG1        0.0000
     17 C17        -6.6698    1.8875   -5.0045 C.3     1  LIG1        0.0000
     18 C18        -7.2360    3.2461   -5.3840 C.3     1  LIG1        0.0000
     19 C19        -6.4836    1.0481   -6.2579 C.3     1  LIG1        0.0000
     20 N20        -3.0607    0.7724   -1.9816 N.pl3   1  LIG1        0.0000
     21 C21        -3.9455    0.0942   -1.0253 C.3     1  LIG1        0.0000
     22 C22        -3.4853   -1.3405   -0.8396 C.2     1  LIG1        0.0000
     23 N23        -3.2631   -1.9723    0.2845 N.2     1  LIG1        0.0000
     24 C24        -2.8476   -3.2792    0.1698 C.3     1  LIG1        0.0000
     25 C25        -2.5176   -4.2774    1.0845 C.3     1  LIG1        0.0000
     26 C26        -2.1177   -5.5535    0.6901 C.3     1  LIG1        0.0000
     27 Cl27       -1.6995   -6.8232    1.8639 Cl      1  LIG1        0.0000
     28 C28        -2.0239   -5.9050   -0.6498 C.3     1  LIG1        0.0000
     29 C29        -2.3420   -4.9622   -1.6138 C.3     1  LIG1        0.0000
     30 C30        -2.7263   -3.7206   -1.1302 C.3     1  LIG1        0.0000
     31 S31        -3.1602   -2.4105   -2.1198 S.3     1  LIG1        0.0000
     32 C32        -1.4904   -0.1017    0.3556 C.3     1  LIG1        0.0000
     33 C33        -0.8781   -1.4729    0.1020 C.3     1  LIG1        0.0000
     34 H           0.6841   -1.4450    1.4485 H       1  LIG1        0.0000
     35 H           4.0504   -2.9999    3.4019 H       1  LIG1        0.0000
     36 H           4.5567   -3.6422    1.9885 H       1  LIG1        0.0000
     37 H           4.2637   -2.0394    2.0986 H       1  LIG1        0.0000
     38 H           2.2388   -4.0876    2.3039 H       1  LIG1        0.0000
     39 H           1.9458   -2.4848    2.4141 H       1  LIG1        0.0000
     40 H           2.9861   -2.3531    0.1445 H       1  LIG1        0.0000
     41 H           2.7136   -3.9618    0.0777 H       1  LIG1        0.0000
     42 H           1.2412   -0.4648   -1.1801 H       1  LIG1        0.0000
     43 H           2.4243   -0.7446   -0.0898 H       1  LIG1        0.0000
     44 H           1.0106    0.8241    1.3292 H       1  LIG1        0.0000
     45 H           2.1340    1.4047    0.2959 H       1  LIG1        0.0000
     46 H          -0.0491    2.5071    0.2154 H       1  LIG1        0.0000
     47 H           0.5547    2.0336   -1.2261 H       1  LIG1        0.0000
     48 H          -5.0027    2.9856   -4.2008 H       1  LIG1        0.0000
     49 H          -7.3026    1.4242   -4.3840 H       1  LIG1        0.0000
     50 H          -8.1187    3.1244   -5.8379 H       1  LIG1        0.0000
     51 H          -7.3585    3.7984   -4.5594 H       1  LIG1        0.0000
     52 H          -6.6033    3.7094   -6.0045 H       1  LIG1        0.0000
     53 H          -7.3663    0.9264   -6.7118 H       1  LIG1        0.0000
     54 H          -5.8509    1.5114   -6.8784 H       1  LIG1        0.0000
     55 H          -6.1111    0.1543   -6.0082 H       1  LIG1        0.0000
     56 H          -4.8823    0.1011   -1.3753 H       1  LIG1        0.0000
     57 H          -3.9144    0.5707   -0.1467 H       1  LIG1        0.0000
     58 H          -2.5696   -4.0704    2.0614 H       1  LIG1        0.0000
     59 H          -1.7314   -6.8238   -0.9148 H       1  LIG1        0.0000
     60 H          -2.2976   -5.1634   -2.5923 H       1  LIG1        0.0000
     61 H          -2.4846   -0.1775    0.2793 H       1  LIG1        0.0000
     62 H          -1.2482    0.1893    1.2811 H       1  LIG1        0.0000
     63 H          -1.3735   -2.1467    0.6503 H       1  LIG1        0.0000
     64 H          -0.9823   -1.6912   -0.8683 H       1  LIG1        0.0000
@<TRIPOS>BOND
     1     1     2    1
     2     2     3    1
     3     3     4    1
     4     4     5    1
     5     5     6    1
     6     6     7    1
     7     7     8    1
     8     8     9    1
     9     9    10    1
    10    10    11    2
    11    11    12    1
    12    12    13    2
    13    13    14    1
    14    14    15    2
    15    14    16   am
    16    16    17    1
    17    17    18    1
    18    17    19    1
    19    13    20    1
    20    20    10    1
    21    20    21    1
    22    21    22    1
    23    22    23    2
    24    23    24    1
    25    24    25   ar
    26    25    26   ar
    27    26    27    1
    28    26    28   ar
    29    28    29   ar
    30    29    30   ar
    31    30    24   ar
    32    30    31    1
    33    31    22    1
    34     9    32    1
    35    32    33    1
    36    33     5    1
    37     5    34    1
    38     1    35    1
    39     1    36    1
    40     1    37    1
    41     2    38    1
    42     2    39    1
    43     3    40    1
    44     3    41    1
    45     6    42    1
    46     6    43    1
    47     7    44    1
    48     7    45    1
    49     8    46    1
    50     8    47    1
    51    16    48    1
    52    17    49    1
    53    18    50    1
    54    18    51    1
    55    18    52    1
    56    19    53    1
    57    19    54    1
    58    19    55    1
    59    21    56    1
    60    21    57    1
    61    25    58    1
    62    28    59    1
    63    29    60    1
    64    32    61    1
    65    32    62    1
    66    33    63    1
    67    33    64    1
