@<TRIPOS>MOLECULE

  52   56
SMALL
USER_CHARGES
@<TRIPOS>ATOM
   1 O1          -1.0676     0.3213     3.5223 O.2          1    LIG   0.0000
   2 C2           0.0746    -0.0749     3.6866 C.2          1    LIG   0.0000
   3 N3           0.6014    -0.1636     4.9809 N.am         1    LIG   0.0000
   4 C4           1.9356    -0.5243     5.2019 C.2          1    LIG   0.0000
   5 O5           2.3265    -0.6241     6.3535 O.2          1    LIG   0.0000
   6 N6           2.7915    -0.7591     4.1194 N.am         1    LIG   0.0000
   7 C7           4.1366    -1.0657     4.3584 C.ar         1    LIG   0.0000
   8 C8           5.0716    -0.0385     4.4377 C.ar         1    LIG   0.0000
   9 C9           6.4102    -0.3337     4.6740 C.ar         1    LIG   0.0000
  10 C10          6.7954    -1.6616     4.8279 C.ar         1    LIG   0.0000
  11 Cl11         8.5064    -2.0468     5.1306 Cl           1    LIG   0.0000
  12 C12          5.8673    -2.6951     4.7492 C.ar         1    LIG   0.0000
  13 C13          4.5309    -2.3905     4.5122 C.ar         1    LIG   0.0000
  14 C14          2.3339    -0.6967     2.7989 C.2          1    LIG   0.0000
  15 O15          3.0975    -0.8518     1.8599 O.2          1    LIG   0.0000
  16 C16          0.9254    -0.4369     2.5712 C.2          1    LIG   0.0000
  17 C17          0.4136    -0.5433     1.3561 C.2          1    LIG   0.0000
  18 C18         -1.0525    -0.2746     1.0567 C.3          1    LIG   0.0000
  19 C19         -1.2844     1.1700     0.6504 C.3          1    LIG   0.0000
  20 C20         -2.6326     1.3886    -0.0167 C.ar         1    LIG   0.0000
  21 C21         -3.5020     2.3489     0.4901 C.ar         1    LIG   0.0000
  22 C22         -4.7332     2.5424    -0.1271 C.ar         1    LIG   0.0000
  23 C23         -5.1000     1.7892    -1.2373 C.ar         1    LIG   0.0000
  24 C24         -4.2149     0.8344    -1.7275 C.ar         1    LIG   0.0000
  25 O25         -4.5604     0.0977    -2.8048 O.3          1    LIG   0.0000
  26 C26         -2.9786     0.6244    -1.1262 C.ar         1    LIG   0.0000
  27 S27         -0.0770     1.5374    -0.6449 S.3          1    LIG   0.0000
  28 C28          0.0275     0.0918    -1.5794 C.ar         1    LIG   0.0000
  29 C29         -0.5632     0.1720    -2.8268 C.ar         1    LIG   0.0000
  30 C30         -0.5102    -0.9797    -3.5916 C.ar         1    LIG   0.0000
  31 C31          0.1125    -2.1237    -3.1045 C.ar         1    LIG   0.0000
  32 C32          0.6916    -2.1342    -1.8392 C.ar         1    LIG   0.0000
  33 C33          0.6662    -1.0013    -1.0219 C.ar         1    LIG   0.0000
  34 N34          1.2039    -0.9048     0.2680 N.pl3        1    LIG   0.0000
  35 H           -1.1685     1.7838     1.4313 H            1    LIG   0.0000
  36 H            0.0120     0.0350     5.7639 H            1    LIG   0.0000
  37 H            4.7813     0.9118     4.3249 H            1    LIG   0.0000
  38 H            7.0875     0.3997     4.7326 H            1    LIG   0.0000
  39 H            6.1575    -3.6454     4.8616 H            1    LIG   0.0000
  40 H            3.8538    -3.1239     4.4525 H            1    LIG   0.0000
  41 H           -1.5923    -0.4721     1.8750 H            1    LIG   0.0000
  42 H           -1.3464    -0.8726     0.3111 H            1    LIG   0.0000
  43 H           -3.2449     2.8935     1.2885 H            1    LIG   0.0000
  44 H           -5.3626     3.2316     0.2318 H            1    LIG   0.0000
  45 H           -5.9869     1.9320    -1.6767 H            1    LIG   0.0000
  46 H           -5.4469     0.2406    -3.2448 H            1    LIG   0.0000
  47 H           -2.3489    -0.0644    -1.4854 H            1    LIG   0.0000
  48 H           -1.0009     1.0090    -3.1553 H            1    LIG   0.0000
  49 H           -0.9231    -0.9895    -4.5023 H            1    LIG   0.0000
  50 H            0.1444    -2.9480    -3.6698 H            1    LIG   0.0000
  51 H            1.1341    -2.9679    -1.5089 H            1    LIG   0.0000
  52 H            2.1744    -1.0994     0.4102 H            1    LIG   0.0000
@<TRIPOS>BOND
   1        1        2 2
   2        2        3 am
   3        3        4 am
   4        4        5 2
   5        4        6 am
   6        6        7 1
   7        7        8 ar
   8        8        9 ar
   9        9       10 ar
  10       10       11 1
  11       10       12 ar
  12       12       13 ar
  13       13        7 ar
  14        6       14 am
  15       14       15 2
  16       14       16 1
  17       16        2 1
  18       16       17 2
  19       17       18 1
  20       18       19 1
  21       19       20 1
  22       20       21 ar
  23       21       22 ar
  24       22       23 ar
  25       23       24 ar
  26       24       25 1
  27       24       26 ar
  28       26       20 ar
  29       19       27 1
  30       27       28 1
  31       28       29 ar
  32       29       30 ar
  33       30       31 ar
  34       31       32 ar
  35       32       33 ar
  36       33       28 ar
  37       33       34 1
  38       34       17 1
  39       19       35 1
  40        3       36 1
  41        8       37 1
  42        9       38 1
  43       12       39 1
  44       13       40 1
  45       18       41 1
  46       18       42 1
  47       21       43 1
  48       22       44 1
  49       23       45 1
  50       25       46 1
  51       26       47 1
  52       29       48 1
  53       30       49 1
  54       31       50 1
  55       32       51 1
  56       34       52 1

@<TRIPOS>MOLECULE

  52   56
SMALL
USER_CHARGES
@<TRIPOS>ATOM
   1 O1          -1.0676     0.3213     3.5223 O.2          1    LIG   0.0000
   2 C2           0.0746    -0.0749     3.6866 C.2          1    LIG   0.0000
   3 N3           0.6014    -0.1636     4.9809 N.am         1    LIG   0.0000
   4 C4           1.9356    -0.5243     5.2019 C.2          1    LIG   0.0000
   5 O5           2.3265    -0.6241     6.3535 O.2          1    LIG   0.0000
   6 N6           2.7915    -0.7591     4.1194 N.am         1    LIG   0.0000
   7 C7           4.1366    -1.0657     4.3584 C.ar         1    LIG   0.0000
   8 C8           5.0716    -0.0385     4.4377 C.ar         1    LIG   0.0000
   9 C9           6.4102    -0.3337     4.6740 C.ar         1    LIG   0.0000
  10 C10          6.7954    -1.6616     4.8279 C.ar         1    LIG   0.0000
  11 Cl11         8.5064    -2.0468     5.1306 Cl           1    LIG   0.0000
  12 C12          5.8673    -2.6951     4.7492 C.ar         1    LIG   0.0000
  13 C13          4.5309    -2.3905     4.5122 C.ar         1    LIG   0.0000
  14 C14          2.3339    -0.6967     2.7989 C.2          1    LIG   0.0000
  15 O15          3.0975    -0.8518     1.8599 O.2          1    LIG   0.0000
  16 C16          0.9254    -0.4369     2.5712 C.2          1    LIG   0.0000
  17 C17          0.4136    -0.5433     1.3561 C.2          1    LIG   0.0000
  18 C18         -1.0525    -0.2746     1.0567 C.3          1    LIG   0.0000
  19 C19         -1.2844     1.1700     0.6504 C.3          1    LIG   0.0000
  20 C20         -2.6326     1.3886    -0.0167 C.ar         1    LIG   0.0000
  21 C21         -2.9437     2.6379    -0.5434 C.ar         1    LIG   0.0000
  22 C22         -4.1795     2.8285    -1.1525 C.ar         1    LIG   0.0000
  23 C23         -5.0997     1.7892    -1.2380 C.ar         1    LIG   0.0000
  24 C24         -4.7675     0.5480    -0.7046 C.ar         1    LIG   0.0000
  25 O25         -5.6530    -0.4681    -0.7822 O.3          1    LIG   0.0000
  26 C26         -3.5375     0.3350    -0.0915 C.ar         1    LIG   0.0000
  27 S27         -0.0770     1.5374    -0.6449 S.3          1    LIG   0.0000
  28 C28          0.0275     0.0918    -1.5794 C.ar         1    LIG   0.0000
  29 C29         -0.5632     0.1720    -2.8268 C.ar         1    LIG   0.0000
  30 C30         -0.5102    -0.9797    -3.5916 C.ar         1    LIG   0.0000
  31 C31          0.1125    -2.1237    -3.1045 C.ar         1    LIG   0.0000
  32 C32          0.6916    -2.1342    -1.8392 C.ar         1    LIG   0.0000
  33 C33          0.6662    -1.0013    -1.0219 C.ar         1    LIG   0.0000
  34 N34          1.2039    -0.9048     0.2680 N.pl3        1    LIG   0.0000
  35 H           -1.1685     1.7838     1.4313 H            1    LIG   0.0000
  36 H            0.0120     0.0350     5.7639 H            1    LIG   0.0000
  37 H            4.7813     0.9118     4.3249 H            1    LIG   0.0000
  38 H            7.0875     0.3997     4.7326 H            1    LIG   0.0000
  39 H            6.1575    -3.6454     4.8616 H            1    LIG   0.0000
  40 H            3.8538    -3.1239     4.4525 H            1    LIG   0.0000
  41 H           -1.5923    -0.4721     1.8750 H            1    LIG   0.0000
  42 H           -1.3464    -0.8726     0.3111 H            1    LIG   0.0000
  43 H           -2.2870     3.3897    -0.4848 H            1    LIG   0.0000
  44 H           -4.4091     3.7240    -1.5337 H            1    LIG   0.0000
  45 H           -5.9871     1.9320    -1.6763 H            1    LIG   0.0000
  46 H           -6.5402    -0.3258    -1.2209 H            1    LIG   0.0000
  47 H           -3.3076    -0.5606     0.2893 H            1    LIG   0.0000
  48 H           -1.0009     1.0090    -3.1553 H            1    LIG   0.0000
  49 H           -0.9231    -0.9895    -4.5023 H            1    LIG   0.0000
  50 H            0.1444    -2.9480    -3.6698 H            1    LIG   0.0000
  51 H            1.1341    -2.9679    -1.5089 H            1    LIG   0.0000
  52 H            2.1744    -1.0994     0.4102 H            1    LIG   0.0000
@<TRIPOS>BOND
   1        1        2 2
   2        2        3 am
   3        3        4 am
   4        4        5 2
   5        4        6 am
   6        6        7 1
   7        7        8 ar
   8        8        9 ar
   9        9       10 ar
  10       10       11 1
  11       10       12 ar
  12       12       13 ar
  13       13        7 ar
  14        6       14 am
  15       14       15 2
  16       14       16 1
  17       16        2 1
  18       16       17 2
  19       17       18 1
  20       18       19 1
  21       19       20 1
  22       20       21 ar
  23       21       22 ar
  24       22       23 ar
  25       23       24 ar
  26       24       25 1
  27       24       26 ar
  28       26       20 ar
  29       19       27 1
  30       27       28 1
  31       28       29 ar
  32       29       30 ar
  33       30       31 ar
  34       31       32 ar
  35       32       33 ar
  36       33       28 ar
  37       33       34 1
  38       34       17 1
  39       19       35 1
  40        3       36 1
  41        8       37 1
  42        9       38 1
  43       12       39 1
  44       13       40 1
  45       18       41 1
  46       18       42 1
  47       21       43 1
  48       22       44 1
  49       23       45 1
  50       25       46 1
  51       26       47 1
  52       29       48 1
  53       30       49 1
  54       31       50 1
  55       32       51 1
  56       34       52 1

@<TRIPOS>MOLECULE

  52   56
SMALL
USER_CHARGES
@<TRIPOS>ATOM
   1 O1          -1.0676     0.3213     3.5223 O.2          1    LIG   0.0000
   2 C2           0.0746    -0.0749     3.6866 C.2          1    LIG   0.0000
   3 N3           0.6014    -0.1636     4.9809 N.am         1    LIG   0.0000
   4 C4           1.9356    -0.5243     5.2019 C.2          1    LIG   0.0000
   5 O5           2.3265    -0.6241     6.3535 O.2          1    LIG   0.0000
   6 N6           2.7915    -0.7591     4.1194 N.am         1    LIG   0.0000
   7 C7           4.1366    -1.0657     4.3584 C.ar         1    LIG   0.0000
   8 C8           5.0716    -0.0385     4.4377 C.ar         1    LIG   0.0000
   9 C9           6.4102    -0.3337     4.6740 C.ar         1    LIG   0.0000
  10 C10          6.7954    -1.6616     4.8279 C.ar         1    LIG   0.0000
  11 Cl11         8.5064    -2.0468     5.1306 Cl           1    LIG   0.0000
  12 C12          5.8673    -2.6951     4.7492 C.ar         1    LIG   0.0000
  13 C13          4.5309    -2.3905     4.5122 C.ar         1    LIG   0.0000
  14 C14          2.3339    -0.6967     2.7989 C.2          1    LIG   0.0000
  15 O15          3.0975    -0.8518     1.8599 O.2          1    LIG   0.0000
  16 C16          0.9254    -0.4369     2.5712 C.2          1    LIG   0.0000
  17 C17          0.4136    -0.5433     1.3561 C.2          1    LIG   0.0000
  18 C18         -1.0525    -0.2746     1.0567 C.3          1    LIG   0.0000
  19 C19         -1.2844     1.1700     0.6504 C.3          1    LIG   0.0000
  20 C20         -2.6326     1.3886    -0.0167 C.ar         1    LIG   0.0000
  21 C21         -3.8000     1.1983     0.7154 C.ar         1    LIG   0.0000
  22 C22         -5.0291     1.4012     0.0968 C.ar         1    LIG   0.0000
  23 C23         -5.1003     1.7886    -1.2370 C.ar         1    LIG   0.0000
  24 C24         -3.9201     1.9733    -1.9501 C.ar         1    LIG   0.0000
  25 O25         -3.9773     2.3496    -3.2454 O.3          1    LIG   0.0000
  26 C26         -2.6803     1.7764    -1.3516 C.ar         1    LIG   0.0000
  27 S27         -0.0770     1.5374    -0.6449 S.3          1    LIG   0.0000
  28 C28          0.0275     0.0918    -1.5794 C.ar         1    LIG   0.0000
  29 C29         -0.5632     0.1720    -2.8268 C.ar         1    LIG   0.0000
  30 C30         -0.5102    -0.9797    -3.5916 C.ar         1    LIG   0.0000
  31 C31          0.1125    -2.1237    -3.1045 C.ar         1    LIG   0.0000
  32 C32          0.6916    -2.1342    -1.8392 C.ar         1    LIG   0.0000
  33 C33          0.6662    -1.0013    -1.0219 C.ar         1    LIG   0.0000
  34 N34          1.2039    -0.9048     0.2680 N.pl3        1    LIG   0.0000
  35 H           -1.1685     1.7838     1.4313 H            1    LIG   0.0000
  36 H            0.0120     0.0350     5.7639 H            1    LIG   0.0000
  37 H            4.7813     0.9118     4.3249 H            1    LIG   0.0000
  38 H            7.0875     0.3997     4.7326 H            1    LIG   0.0000
  39 H            6.1575    -3.6454     4.8616 H            1    LIG   0.0000
  40 H            3.8538    -3.1239     4.4525 H            1    LIG   0.0000
  41 H           -1.5923    -0.4721     1.8750 H            1    LIG   0.0000
  42 H           -1.3464    -0.8726     0.3111 H            1    LIG   0.0000
  43 H           -3.7560     0.9191     1.6746 H            1    LIG   0.0000
  44 H           -5.8721     1.2668     0.6177 H            1    LIG   0.0000
  45 H           -5.9867     1.9323    -1.6769 H            1    LIG   0.0000
  46 H           -4.8636     2.4939    -3.6855 H            1    LIG   0.0000
  47 H           -1.8373     1.9113    -1.8722 H            1    LIG   0.0000
  48 H           -1.0009     1.0090    -3.1553 H            1    LIG   0.0000
  49 H           -0.9231    -0.9895    -4.5023 H            1    LIG   0.0000
  50 H            0.1444    -2.9480    -3.6698 H            1    LIG   0.0000
  51 H            1.1341    -2.9679    -1.5089 H            1    LIG   0.0000
  52 H            2.1744    -1.0994     0.4102 H            1    LIG   0.0000
@<TRIPOS>BOND
   1        1        2 2
   2        2        3 am
   3        3        4 am
   4        4        5 2
   5        4        6 am
   6        6        7 1
   7        7        8 ar
   8        8        9 ar
   9        9       10 ar
  10       10       11 1
  11       10       12 ar
  12       12       13 ar
  13       13        7 ar
  14        6       14 am
  15       14       15 2
  16       14       16 1
  17       16        2 1
  18       16       17 2
  19       17       18 1
  20       18       19 1
  21       19       20 1
  22       20       21 ar
  23       21       22 ar
  24       22       23 ar
  25       23       24 ar
  26       24       25 1
  27       24       26 ar
  28       26       20 ar
  29       19       27 1
  30       27       28 1
  31       28       29 ar
  32       29       30 ar
  33       30       31 ar
  34       31       32 ar
  35       32       33 ar
  36       33       28 ar
  37       33       34 1
  38       34       17 1
  39       19       35 1
  40        3       36 1
  41        8       37 1
  42        9       38 1
  43       12       39 1
  44       13       40 1
  45       18       41 1
  46       18       42 1
  47       21       43 1
  48       22       44 1
  49       23       45 1
  50       25       46 1
  51       26       47 1
  52       29       48 1
  53       30       49 1
  54       31       50 1
  55       32       51 1
  56       34       52 1

@<TRIPOS>MOLECULE

  52   56
SMALL
USER_CHARGES
@<TRIPOS>ATOM
   1 O1          -1.0676     0.3213     3.5223 O.2          1    LIG   0.0000
   2 C2           0.0746    -0.0749     3.6866 C.2          1    LIG   0.0000
   3 N3           0.6014    -0.1636     4.9809 N.am         1    LIG   0.0000
   4 C4           1.9356    -0.5243     5.2019 C.2          1    LIG   0.0000
   5 O5           2.3265    -0.6241     6.3535 O.2          1    LIG   0.0000
   6 N6           2.7915    -0.7591     4.1194 N.am         1    LIG   0.0000
   7 C7           4.1366    -1.0657     4.3584 C.ar         1    LIG   0.0000
   8 C8           5.0716    -0.0385     4.4377 C.ar         1    LIG   0.0000
   9 C9           6.4102    -0.3337     4.6740 C.ar         1    LIG   0.0000
  10 C10          6.7954    -1.6616     4.8279 C.ar         1    LIG   0.0000
  11 Cl11         8.5064    -2.0468     5.1306 Cl           1    LIG   0.0000
  12 C12          5.8673    -2.6951     4.7492 C.ar         1    LIG   0.0000
  13 C13          4.5309    -2.3905     4.5122 C.ar         1    LIG   0.0000
  14 C14          2.3339    -0.6967     2.7989 C.2          1    LIG   0.0000
  15 O15          3.0975    -0.8518     1.8599 O.2          1    LIG   0.0000
  16 C16          0.9254    -0.4369     2.5712 C.2          1    LIG   0.0000
  17 C17          0.4136    -0.5433     1.3561 C.2          1    LIG   0.0000
  18 C18         -1.0525    -0.2746     1.0567 C.3          1    LIG   0.0000
  19 C19         -1.2844     1.1700     0.6504 C.3          1    LIG   0.0000
  20 C20         -2.6326     1.3886    -0.0167 C.ar         1    LIG   0.0000
  21 C21         -2.9814     0.6258    -1.1264 C.ar         1    LIG   0.0000
  22 C22         -4.2173     0.8323    -1.7300 C.ar         1    LIG   0.0000
  23 C23         -5.0999     1.7880    -1.2380 C.ar         1    LIG   0.0000
  24 C24         -4.7305     2.5394    -0.1270 C.ar         1    LIG   0.0000
  25 O25         -5.5794     3.4697     0.3593 O.3          1    LIG   0.0000
  26 C26         -3.4998     2.3494     0.4924 C.ar         1    LIG   0.0000
  27 S27         -0.0770     1.5374    -0.6449 S.3          1    LIG   0.0000
  28 C28          0.0275     0.0918    -1.5794 C.ar         1    LIG   0.0000
  29 C29         -0.5632     0.1720    -2.8268 C.ar         1    LIG   0.0000
  30 C30         -0.5102    -0.9797    -3.5916 C.ar         1    LIG   0.0000
  31 C31          0.1125    -2.1237    -3.1045 C.ar         1    LIG   0.0000
  32 C32          0.6916    -2.1342    -1.8392 C.ar         1    LIG   0.0000
  33 C33          0.6662    -1.0013    -1.0219 C.ar         1    LIG   0.0000
  34 N34          1.2039    -0.9048     0.2680 N.pl3        1    LIG   0.0000
  35 H           -1.1685     1.7838     1.4313 H            1    LIG   0.0000
  36 H            0.0120     0.0350     5.7639 H            1    LIG   0.0000
  37 H            4.7813     0.9118     4.3249 H            1    LIG   0.0000
  38 H            7.0875     0.3997     4.7326 H            1    LIG   0.0000
  39 H            6.1575    -3.6454     4.8616 H            1    LIG   0.0000
  40 H            3.8538    -3.1239     4.4525 H            1    LIG   0.0000
  41 H           -1.5923    -0.4721     1.8750 H            1    LIG   0.0000
  42 H           -1.3464    -0.8726     0.3111 H            1    LIG   0.0000
  43 H           -2.3514    -0.0626    -1.4857 H            1    LIG   0.0000
  44 H           -4.4745     0.2868    -2.5277 H            1    LIG   0.0000
  45 H           -5.9869     1.9328    -1.6764 H            1    LIG   0.0000
  46 H           -6.4667     3.6144    -0.0786 H            1    LIG   0.0000
  47 H           -3.2428     2.8945     1.2904 H            1    LIG   0.0000
  48 H           -1.0009     1.0090    -3.1553 H            1    LIG   0.0000
  49 H           -0.9231    -0.9895    -4.5023 H            1    LIG   0.0000
  50 H            0.1444    -2.9480    -3.6698 H            1    LIG   0.0000
  51 H            1.1341    -2.9679    -1.5089 H            1    LIG   0.0000
  52 H            2.1744    -1.0994     0.4102 H            1    LIG   0.0000
@<TRIPOS>BOND
   1        1        2 2
   2        2        3 am
   3        3        4 am
   4        4        5 2
   5        4        6 am
   6        6        7 1
   7        7        8 ar
   8        8        9 ar
   9        9       10 ar
  10       10       11 1
  11       10       12 ar
  12       12       13 ar
  13       13        7 ar
  14        6       14 am
  15       14       15 2
  16       14       16 1
  17       16        2 1
  18       16       17 2
  19       17       18 1
  20       18       19 1
  21       19       20 1
  22       20       21 ar
  23       21       22 ar
  24       22       23 ar
  25       23       24 ar
  26       24       25 1
  27       24       26 ar
  28       26       20 ar
  29       19       27 1
  30       27       28 1
  31       28       29 ar
  32       29       30 ar
  33       30       31 ar
  34       31       32 ar
  35       32       33 ar
  36       33       28 ar
  37       33       34 1
  38       34       17 1
  39       19       35 1
  40        3       36 1
  41        8       37 1
  42        9       38 1
  43       12       39 1
  44       13       40 1
  45       18       41 1
  46       18       42 1
  47       21       43 1
  48       22       44 1
  49       23       45 1
  50       25       46 1
  51       26       47 1
  52       29       48 1
  53       30       49 1
  54       31       50 1
  55       32       51 1
  56       34       52 1

@<TRIPOS>MOLECULE

  52   56
SMALL
USER_CHARGES
@<TRIPOS>ATOM
   1 O1          -1.0676     0.3213     3.5223 O.2          1    LIG   0.0000
   2 C2           0.0746    -0.0749     3.6866 C.2          1    LIG   0.0000
   3 N3           0.6014    -0.1636     4.9809 N.am         1    LIG   0.0000
   4 C4           1.9356    -0.5243     5.2019 C.2          1    LIG   0.0000
   5 O5           2.3265    -0.6241     6.3535 O.2          1    LIG   0.0000
   6 N6           2.7915    -0.7591     4.1194 N.am         1    LIG   0.0000
   7 C7           4.1366    -1.0657     4.3584 C.ar         1    LIG   0.0000
   8 C8           5.0716    -0.0385     4.4377 C.ar         1    LIG   0.0000
   9 C9           6.4102    -0.3337     4.6740 C.ar         1    LIG   0.0000
  10 C10          6.7954    -1.6616     4.8279 C.ar         1    LIG   0.0000
  11 Cl11         8.5064    -2.0468     5.1306 Cl           1    LIG   0.0000
  12 C12          5.8673    -2.6951     4.7492 C.ar         1    LIG   0.0000
  13 C13          4.5309    -2.3905     4.5122 C.ar         1    LIG   0.0000
  14 C14          2.3339    -0.6967     2.7989 C.2          1    LIG   0.0000
  15 O15          3.0975    -0.8518     1.8599 O.2          1    LIG   0.0000
  16 C16          0.9254    -0.4369     2.5712 C.2          1    LIG   0.0000
  17 C17          0.4136    -0.5433     1.3561 C.2          1    LIG   0.0000
  18 C18         -1.0525    -0.2746     1.0567 C.3          1    LIG   0.0000
  19 C19         -1.2844     1.1700     0.6504 C.3          1    LIG   0.0000
  20 C20         -2.6326     1.3886    -0.0167 C.ar         1    LIG   0.0000
  21 C21         -3.5397     0.3368    -0.0929 C.ar         1    LIG   0.0000
  22 C22         -4.7711     0.5461    -0.7046 C.ar         1    LIG   0.0000
  23 C23         -5.1002     1.7880    -1.2373 C.ar         1    LIG   0.0000
  24 C24         -4.1779     2.8258    -1.1499 C.ar         1    LIG   0.0000
  25 O25         -4.4868     4.0356    -1.6634 O.3          1    LIG   0.0000
  26 C26         -2.9409     2.6389    -0.5423 C.ar         1    LIG   0.0000
  27 S27         -0.0770     1.5374    -0.6449 S.3          1    LIG   0.0000
  28 C28          0.0275     0.0918    -1.5794 C.ar         1    LIG   0.0000
  29 C29         -0.5632     0.1720    -2.8268 C.ar         1    LIG   0.0000
  30 C30         -0.5102    -0.9797    -3.5916 C.ar         1    LIG   0.0000
  31 C31          0.1125    -2.1237    -3.1045 C.ar         1    LIG   0.0000
  32 C32          0.6916    -2.1342    -1.8392 C.ar         1    LIG   0.0000
  33 C33          0.6662    -1.0013    -1.0219 C.ar         1    LIG   0.0000
  34 N34          1.2039    -0.9048     0.2680 N.pl3        1    LIG   0.0000
  35 H           -1.1685     1.7838     1.4313 H            1    LIG   0.0000
  36 H            0.0120     0.0350     5.7639 H            1    LIG   0.0000
  37 H            4.7813     0.9118     4.3249 H            1    LIG   0.0000
  38 H            7.0875     0.3997     4.7326 H            1    LIG   0.0000
  39 H            6.1575    -3.6454     4.8616 H            1    LIG   0.0000
  40 H            3.8538    -3.1239     4.4525 H            1    LIG   0.0000
  41 H           -1.5923    -0.4721     1.8750 H            1    LIG   0.0000
  42 H           -1.3464    -0.8726     0.3111 H            1    LIG   0.0000
  43 H           -3.3093    -0.5589     0.2875 H            1    LIG   0.0000
  44 H           -5.4280    -0.2056    -0.7621 H            1    LIG   0.0000
  45 H           -5.9868     1.9327    -1.6768 H            1    LIG   0.0000
  46 H           -5.3735     4.1808    -2.1024 H            1    LIG   0.0000
  47 H           -2.2842     3.3907    -0.4843 H            1    LIG   0.0000
  48 H           -1.0009     1.0090    -3.1553 H            1    LIG   0.0000
  49 H           -0.9231    -0.9895    -4.5023 H            1    LIG   0.0000
  50 H            0.1444    -2.9480    -3.6698 H            1    LIG   0.0000
  51 H            1.1341    -2.9679    -1.5089 H            1    LIG   0.0000
  52 H            2.1744    -1.0994     0.4102 H            1    LIG   0.0000
@<TRIPOS>BOND
   1        1        2 2
   2        2        3 am
   3        3        4 am
   4        4        5 2
   5        4        6 am
   6        6        7 1
   7        7        8 ar
   8        8        9 ar
   9        9       10 ar
  10       10       11 1
  11       10       12 ar
  12       12       13 ar
  13       13        7 ar
  14        6       14 am
  15       14       15 2
  16       14       16 1
  17       16        2 1
  18       16       17 2
  19       17       18 1
  20       18       19 1
  21       19       20 1
  22       20       21 ar
  23       21       22 ar
  24       22       23 ar
  25       23       24 ar
  26       24       25 1
  27       24       26 ar
  28       26       20 ar
  29       19       27 1
  30       27       28 1
  31       28       29 ar
  32       29       30 ar
  33       30       31 ar
  34       31       32 ar
  35       32       33 ar
  36       33       28 ar
  37       33       34 1
  38       34       17 1
  39       19       35 1
  40        3       36 1
  41        8       37 1
  42        9       38 1
  43       12       39 1
  44       13       40 1
  45       18       41 1
  46       18       42 1
  47       21       43 1
  48       22       44 1
  49       23       45 1
  50       25       46 1
  51       26       47 1
  52       29       48 1
  53       30       49 1
  54       31       50 1
  55       32       51 1
  56       34       52 1

@<TRIPOS>MOLECULE

  52   56
SMALL
USER_CHARGES
@<TRIPOS>ATOM
   1 O1          -1.0676     0.3213     3.5223 O.2          1    LIG   0.0000
   2 C2           0.0746    -0.0749     3.6866 C.2          1    LIG   0.0000
   3 N3           0.6014    -0.1636     4.9809 N.am         1    LIG   0.0000
   4 C4           1.9356    -0.5243     5.2019 C.2          1    LIG   0.0000
   5 O5           2.3265    -0.6241     6.3535 O.2          1    LIG   0.0000
   6 N6           2.7915    -0.7591     4.1194 N.am         1    LIG   0.0000
   7 C7           4.1366    -1.0657     4.3584 C.ar         1    LIG   0.0000
   8 C8           5.0716    -0.0385     4.4377 C.ar         1    LIG   0.0000
   9 C9           6.4102    -0.3337     4.6740 C.ar         1    LIG   0.0000
  10 C10          6.7954    -1.6616     4.8279 C.ar         1    LIG   0.0000
  11 Cl11         8.5064    -2.0468     5.1306 Cl           1    LIG   0.0000
  12 C12          5.8673    -2.6951     4.7492 C.ar         1    LIG   0.0000
  13 C13          4.5309    -2.3905     4.5122 C.ar         1    LIG   0.0000
  14 C14          2.3339    -0.6967     2.7989 C.2          1    LIG   0.0000
  15 O15          3.0975    -0.8518     1.8599 O.2          1    LIG   0.0000
  16 C16          0.9254    -0.4369     2.5712 C.2          1    LIG   0.0000
  17 C17          0.4136    -0.5433     1.3561 C.2          1    LIG   0.0000
  18 C18         -1.0525    -0.2746     1.0567 C.3          1    LIG   0.0000
  19 C19         -1.2844     1.1700     0.6504 C.3          1    LIG   0.0000
  20 C20         -2.6326     1.3886    -0.0167 C.ar         1    LIG   0.0000
  21 C21         -2.6835     1.7763    -1.3517 C.ar         1    LIG   0.0000
  22 C22         -3.9215     1.9735    -1.9539 C.ar         1    LIG   0.0000
  23 C23         -5.0996     1.7886    -1.2383 C.ar         1    LIG   0.0000
  24 C24         -5.0253     1.4005     0.0956 C.ar         1    LIG   0.0000
  25 O25         -6.1625     1.2179     0.7999 O.3          1    LIG   0.0000
  26 C26         -3.7981     1.1975     0.7178 C.ar         1    LIG   0.0000
  27 S27         -0.0770     1.5374    -0.6449 S.3          1    LIG   0.0000
  28 C28          0.0275     0.0918    -1.5794 C.ar         1    LIG   0.0000
  29 C29         -0.5632     0.1720    -2.8268 C.ar         1    LIG   0.0000
  30 C30         -0.5102    -0.9797    -3.5916 C.ar         1    LIG   0.0000
  31 C31          0.1125    -2.1237    -3.1045 C.ar         1    LIG   0.0000
  32 C32          0.6916    -2.1342    -1.8392 C.ar         1    LIG   0.0000
  33 C33          0.6662    -1.0013    -1.0219 C.ar         1    LIG   0.0000
  34 N34          1.2039    -0.9048     0.2680 N.pl3        1    LIG   0.0000
  35 H           -1.1685     1.7838     1.4313 H            1    LIG   0.0000
  36 H            0.0120     0.0350     5.7639 H            1    LIG   0.0000
  37 H            4.7813     0.9118     4.3249 H            1    LIG   0.0000
  38 H            7.0875     0.3997     4.7326 H            1    LIG   0.0000
  39 H            6.1575    -3.6454     4.8616 H            1    LIG   0.0000
  40 H            3.8538    -3.1239     4.4525 H            1    LIG   0.0000
  41 H           -1.5923    -0.4721     1.8750 H            1    LIG   0.0000
  42 H           -1.3464    -0.8726     0.3111 H            1    LIG   0.0000
  43 H           -1.8402     1.9117    -1.8719 H            1    LIG   0.0000
  44 H           -3.9651     2.2516    -2.9135 H            1    LIG   0.0000
  45 H           -5.9871     1.9324    -1.6761 H            1    LIG   0.0000
  46 H           -7.0501     1.3611     0.3622 H            1    LIG   0.0000
  47 H           -3.7545     0.9188     1.6772 H            1    LIG   0.0000
  48 H           -1.0009     1.0090    -3.1553 H            1    LIG   0.0000
  49 H           -0.9231    -0.9895    -4.5023 H            1    LIG   0.0000
  50 H            0.1444    -2.9480    -3.6698 H            1    LIG   0.0000
  51 H            1.1341    -2.9679    -1.5089 H            1    LIG   0.0000
  52 H            2.1744    -1.0994     0.4102 H            1    LIG   0.0000
@<TRIPOS>BOND
   1        1        2 2
   2        2        3 am
   3        3        4 am
   4        4        5 2
   5        4        6 am
   6        6        7 1
   7        7        8 ar
   8        8        9 ar
   9        9       10 ar
  10       10       11 1
  11       10       12 ar
  12       12       13 ar
  13       13        7 ar
  14        6       14 am
  15       14       15 2
  16       14       16 1
  17       16        2 1
  18       16       17 2
  19       17       18 1
  20       18       19 1
  21       19       20 1
  22       20       21 ar
  23       21       22 ar
  24       22       23 ar
  25       23       24 ar
  26       24       25 1
  27       24       26 ar
  28       26       20 ar
  29       19       27 1
  30       27       28 1
  31       28       29 ar
  32       29       30 ar
  33       30       31 ar
  34       31       32 ar
  35       32       33 ar
  36       33       28 ar
  37       33       34 1
  38       34       17 1
  39       19       35 1
  40        3       36 1
  41        8       37 1
  42        9       38 1
  43       12       39 1
  44       13       40 1
  45       18       41 1
  46       18       42 1
  47       21       43 1
  48       22       44 1
  49       23       45 1
  50       25       46 1
  51       26       47 1
  52       29       48 1
  53       30       49 1
  54       31       50 1
  55       32       51 1
  56       34       52 1

@<TRIPOS>MOLECULE

  52   56
SMALL
USER_CHARGES
@<TRIPOS>ATOM
   1 O1          -1.0676     0.3213     3.5223 O.2          1    LIG   0.0000
   2 C2           0.0746    -0.0749     3.6866 C.2          1    LIG   0.0000
   3 N3           0.6014    -0.1636     4.9809 N.am         1    LIG   0.0000
   4 C4           1.9356    -0.5243     5.2019 C.2          1    LIG   0.0000
   5 O5           2.3265    -0.6241     6.3535 O.2          1    LIG   0.0000
   6 N6           2.7915    -0.7591     4.1194 N.am         1    LIG   0.0000
   7 C7           4.1366    -1.0657     4.3584 C.ar         1    LIG   0.0000
   8 C8           4.7671    -0.5551     5.4886 C.ar         1    LIG   0.0000
   9 C9           6.1034    -0.8536     5.7337 C.ar         1    LIG   0.0000
  10 C10          6.7931    -1.6639     4.8375 C.ar         1    LIG   0.0000
  11 Cl11         8.5031    -2.0502     5.1448 Cl           1    LIG   0.0000
  12 C12          6.1708    -2.1780     3.7044 C.ar         1    LIG   0.0000
  13 C13          4.8343    -1.8739     3.4672 C.ar         1    LIG   0.0000
  14 C14          2.3339    -0.6967     2.7989 C.2          1    LIG   0.0000
  15 O15          3.0975    -0.8518     1.8599 O.2          1    LIG   0.0000
  16 C16          0.9254    -0.4369     2.5712 C.2          1    LIG   0.0000
  17 C17          0.4136    -0.5433     1.3561 C.2          1    LIG   0.0000
  18 C18         -1.0525    -0.2746     1.0567 C.3          1    LIG   0.0000
  19 C19         -1.2844     1.1700     0.6504 C.3          1    LIG   0.0000
  20 C20         -2.6326     1.3886    -0.0167 C.ar         1    LIG   0.0000
  21 C21         -3.5020     2.3489     0.4901 C.ar         1    LIG   0.0000
  22 C22         -4.7332     2.5424    -0.1271 C.ar         1    LIG   0.0000
  23 C23         -5.1000     1.7892    -1.2373 C.ar         1    LIG   0.0000
  24 C24         -4.2149     0.8344    -1.7275 C.ar         1    LIG   0.0000
  25 O25         -4.5604     0.0977    -2.8048 O.3          1    LIG   0.0000
  26 C26         -2.9786     0.6244    -1.1262 C.ar         1    LIG   0.0000
  27 S27         -0.0770     1.5374    -0.6449 S.3          1    LIG   0.0000
  28 C28          0.0275     0.0918    -1.5794 C.ar         1    LIG   0.0000
  29 C29         -0.5632     0.1720    -2.8268 C.ar         1    LIG   0.0000
  30 C30         -0.5102    -0.9797    -3.5916 C.ar         1    LIG   0.0000
  31 C31          0.1125    -2.1237    -3.1045 C.ar         1    LIG   0.0000
  32 C32          0.6916    -2.1342    -1.8392 C.ar         1    LIG   0.0000
  33 C33          0.6662    -1.0013    -1.0219 C.ar         1    LIG   0.0000
  34 N34          1.2039    -0.9048     0.2680 N.pl3        1    LIG   0.0000
  35 H           -1.1685     1.7838     1.4313 H            1    LIG   0.0000
  36 H            0.0120     0.0350     5.7639 H            1    LIG   0.0000
  37 H            4.2597     0.0264     6.1245 H            1    LIG   0.0000
  38 H            6.5627    -0.4903     6.5442 H            1    LIG   0.0000
  39 H            6.6781    -2.7592     3.0682 H            1    LIG   0.0000
  40 H            4.3753    -2.2363     2.6561 H            1    LIG   0.0000
  41 H           -1.5923    -0.4721     1.8750 H            1    LIG   0.0000
  42 H           -1.3464    -0.8726     0.3111 H            1    LIG   0.0000
  43 H           -3.2449     2.8935     1.2885 H            1    LIG   0.0000
  44 H           -5.3626     3.2316     0.2318 H            1    LIG   0.0000
  45 H           -5.9869     1.9320    -1.6767 H            1    LIG   0.0000
  46 H           -5.4469     0.2406    -3.2448 H            1    LIG   0.0000
  47 H           -2.3489    -0.0644    -1.4854 H            1    LIG   0.0000
  48 H           -1.0009     1.0090    -3.1553 H            1    LIG   0.0000
  49 H           -0.9231    -0.9895    -4.5023 H            1    LIG   0.0000
  50 H            0.1444    -2.9480    -3.6698 H            1    LIG   0.0000
  51 H            1.1341    -2.9679    -1.5089 H            1    LIG   0.0000
  52 H            2.1744    -1.0994     0.4102 H            1    LIG   0.0000
@<TRIPOS>BOND
   1        1        2 2
   2        2        3 am
   3        3        4 am
   4        4        5 2
   5        4        6 am
   6        6        7 1
   7        7        8 ar
   8        8        9 ar
   9        9       10 ar
  10       10       11 1
  11       10       12 ar
  12       12       13 ar
  13       13        7 ar
  14        6       14 am
  15       14       15 2
  16       14       16 1
  17       16        2 1
  18       16       17 2
  19       17       18 1
  20       18       19 1
  21       19       20 1
  22       20       21 ar
  23       21       22 ar
  24       22       23 ar
  25       23       24 ar
  26       24       25 1
  27       24       26 ar
  28       26       20 ar
  29       19       27 1
  30       27       28 1
  31       28       29 ar
  32       29       30 ar
  33       30       31 ar
  34       31       32 ar
  35       32       33 ar
  36       33       28 ar
  37       33       34 1
  38       34       17 1
  39       19       35 1
  40        3       36 1
  41        8       37 1
  42        9       38 1
  43       12       39 1
  44       13       40 1
  45       18       41 1
  46       18       42 1
  47       21       43 1
  48       22       44 1
  49       23       45 1
  50       25       46 1
  51       26       47 1
  52       29       48 1
  53       30       49 1
  54       31       50 1
  55       32       51 1
  56       34       52 1

@<TRIPOS>MOLECULE

  52   56
SMALL
USER_CHARGES
@<TRIPOS>ATOM
   1 O1          -1.0676     0.3213     3.5223 O.2          1    LIG   0.0000
   2 C2           0.0746    -0.0749     3.6866 C.2          1    LIG   0.0000
   3 N3           0.6014    -0.1636     4.9809 N.am         1    LIG   0.0000
   4 C4           1.9356    -0.5243     5.2019 C.2          1    LIG   0.0000
   5 O5           2.3265    -0.6241     6.3535 O.2          1    LIG   0.0000
   6 N6           2.7915    -0.7591     4.1194 N.am         1    LIG   0.0000
   7 C7           4.1366    -1.0657     4.3584 C.ar         1    LIG   0.0000
   8 C8           4.7671    -0.5551     5.4886 C.ar         1    LIG   0.0000
   9 C9           6.1034    -0.8536     5.7337 C.ar         1    LIG   0.0000
  10 C10          6.7931    -1.6639     4.8375 C.ar         1    LIG   0.0000
  11 Cl11         8.5031    -2.0502     5.1448 Cl           1    LIG   0.0000
  12 C12          6.1708    -2.1780     3.7044 C.ar         1    LIG   0.0000
  13 C13          4.8343    -1.8739     3.4672 C.ar         1    LIG   0.0000
  14 C14          2.3339    -0.6967     2.7989 C.2          1    LIG   0.0000
  15 O15          3.0975    -0.8518     1.8599 O.2          1    LIG   0.0000
  16 C16          0.9254    -0.4369     2.5712 C.2          1    LIG   0.0000
  17 C17          0.4136    -0.5433     1.3561 C.2          1    LIG   0.0000
  18 C18         -1.0525    -0.2746     1.0567 C.3          1    LIG   0.0000
  19 C19         -1.2844     1.1700     0.6504 C.3          1    LIG   0.0000
  20 C20         -2.6326     1.3886    -0.0167 C.ar         1    LIG   0.0000
  21 C21         -2.9814     0.6258    -1.1264 C.ar         1    LIG   0.0000
  22 C22         -4.2173     0.8323    -1.7300 C.ar         1    LIG   0.0000
  23 C23         -5.0999     1.7880    -1.2380 C.ar         1    LIG   0.0000
  24 C24         -4.7305     2.5394    -0.1270 C.ar         1    LIG   0.0000
  25 O25         -5.5794     3.4697     0.3593 O.3          1    LIG   0.0000
  26 C26         -3.4998     2.3494     0.4924 C.ar         1    LIG   0.0000
  27 S27         -0.0770     1.5374    -0.6449 S.3          1    LIG   0.0000
  28 C28          0.0275     0.0918    -1.5794 C.ar         1    LIG   0.0000
  29 C29         -0.5632     0.1720    -2.8268 C.ar         1    LIG   0.0000
  30 C30         -0.5102    -0.9797    -3.5916 C.ar         1    LIG   0.0000
  31 C31          0.1125    -2.1237    -3.1045 C.ar         1    LIG   0.0000
  32 C32          0.6916    -2.1342    -1.8392 C.ar         1    LIG   0.0000
  33 C33          0.6662    -1.0013    -1.0219 C.ar         1    LIG   0.0000
  34 N34          1.2039    -0.9048     0.2680 N.pl3        1    LIG   0.0000
  35 H           -1.1685     1.7838     1.4313 H            1    LIG   0.0000
  36 H            0.0120     0.0350     5.7639 H            1    LIG   0.0000
  37 H            4.2597     0.0264     6.1245 H            1    LIG   0.0000
  38 H            6.5627    -0.4903     6.5442 H            1    LIG   0.0000
  39 H            6.6781    -2.7592     3.0682 H            1    LIG   0.0000
  40 H            4.3753    -2.2363     2.6561 H            1    LIG   0.0000
  41 H           -1.5923    -0.4721     1.8750 H            1    LIG   0.0000
  42 H           -1.3464    -0.8726     0.3111 H            1    LIG   0.0000
  43 H           -2.3514    -0.0626    -1.4857 H            1    LIG   0.0000
  44 H           -4.4745     0.2868    -2.5277 H            1    LIG   0.0000
  45 H           -5.9869     1.9328    -1.6764 H            1    LIG   0.0000
  46 H           -6.4667     3.6144    -0.0786 H            1    LIG   0.0000
  47 H           -3.2428     2.8945     1.2904 H            1    LIG   0.0000
  48 H           -1.0009     1.0090    -3.1553 H            1    LIG   0.0000
  49 H           -0.9231    -0.9895    -4.5023 H            1    LIG   0.0000
  50 H            0.1444    -2.9480    -3.6698 H            1    LIG   0.0000
  51 H            1.1341    -2.9679    -1.5089 H            1    LIG   0.0000
  52 H            2.1744    -1.0994     0.4102 H            1    LIG   0.0000
@<TRIPOS>BOND
   1        1        2 2
   2        2        3 am
   3        3        4 am
   4        4        5 2
   5        4        6 am
   6        6        7 1
   7        7        8 ar
   8        8        9 ar
   9        9       10 ar
  10       10       11 1
  11       10       12 ar
  12       12       13 ar
  13       13        7 ar
  14        6       14 am
  15       14       15 2
  16       14       16 1
  17       16        2 1
  18       16       17 2
  19       17       18 1
  20       18       19 1
  21       19       20 1
  22       20       21 ar
  23       21       22 ar
  24       22       23 ar
  25       23       24 ar
  26       24       25 1
  27       24       26 ar
  28       26       20 ar
  29       19       27 1
  30       27       28 1
  31       28       29 ar
  32       29       30 ar
  33       30       31 ar
  34       31       32 ar
  35       32       33 ar
  36       33       28 ar
  37       33       34 1
  38       34       17 1
  39       19       35 1
  40        3       36 1
  41        8       37 1
  42        9       38 1
  43       12       39 1
  44       13       40 1
  45       18       41 1
  46       18       42 1
  47       21       43 1
  48       22       44 1
  49       23       45 1
  50       25       46 1
  51       26       47 1
  52       29       48 1
  53       30       49 1
  54       31       50 1
  55       32       51 1
  56       34       52 1

@<TRIPOS>MOLECULE

  52   56
SMALL
USER_CHARGES
@<TRIPOS>ATOM
   1 O1          -1.0676     0.3213     3.5223 O.2          1    LIG   0.0000
   2 C2           0.0746    -0.0749     3.6866 C.2          1    LIG   0.0000
   3 N3           0.6014    -0.1636     4.9809 N.am         1    LIG   0.0000
   4 C4           1.9356    -0.5243     5.2019 C.2          1    LIG   0.0000
   5 O5           2.3265    -0.6241     6.3535 O.2          1    LIG   0.0000
   6 N6           2.7915    -0.7591     4.1194 N.am         1    LIG   0.0000
   7 C7           4.1366    -1.0657     4.3584 C.ar         1    LIG   0.0000
   8 C8           5.1009    -0.6995     3.4248 C.ar         1    LIG   0.0000
   9 C9           6.4395    -1.0007     3.6534 C.ar         1    LIG   0.0000
  10 C10          6.7950    -1.6688     4.8208 C.ar         1    LIG   0.0000
  11 Cl11         8.5058    -2.0573     5.1200 Cl           1    LIG   0.0000
  12 C12          5.8372    -2.0395     5.7593 C.ar         1    LIG   0.0000
  13 C13          4.5009    -1.7345     5.5221 C.ar         1    LIG   0.0000
  14 C14          2.3339    -0.6967     2.7989 C.2          1    LIG   0.0000
  15 O15          3.0975    -0.8518     1.8599 O.2          1    LIG   0.0000
  16 C16          0.9254    -0.4369     2.5712 C.2          1    LIG   0.0000
  17 C17          0.4136    -0.5433     1.3561 C.2          1    LIG   0.0000
  18 C18         -1.0525    -0.2746     1.0567 C.3          1    LIG   0.0000
  19 C19         -1.2844     1.1700     0.6504 C.3          1    LIG   0.0000
  20 C20         -2.6326     1.3886    -0.0167 C.ar         1    LIG   0.0000
  21 C21         -3.5020     2.3489     0.4901 C.ar         1    LIG   0.0000
  22 C22         -4.7332     2.5424    -0.1271 C.ar         1    LIG   0.0000
  23 C23         -5.1000     1.7892    -1.2373 C.ar         1    LIG   0.0000
  24 C24         -4.2149     0.8344    -1.7275 C.ar         1    LIG   0.0000
  25 O25         -4.5604     0.0977    -2.8048 O.3          1    LIG   0.0000
  26 C26         -2.9786     0.6244    -1.1262 C.ar         1    LIG   0.0000
  27 S27         -0.0770     1.5374    -0.6449 S.3          1    LIG   0.0000
  28 C28          0.0275     0.0918    -1.5794 C.ar         1    LIG   0.0000
  29 C29         -0.5632     0.1720    -2.8268 C.ar         1    LIG   0.0000
  30 C30         -0.5102    -0.9797    -3.5916 C.ar         1    LIG   0.0000
  31 C31          0.1125    -2.1237    -3.1045 C.ar         1    LIG   0.0000
  32 C32          0.6916    -2.1342    -1.8392 C.ar         1    LIG   0.0000
  33 C33          0.6662    -1.0013    -1.0219 C.ar         1    LIG   0.0000
  34 N34          1.2039    -0.9048     0.2680 N.pl3        1    LIG   0.0000
  35 H           -1.1685     1.7838     1.4313 H            1    LIG   0.0000
  36 H            0.0120     0.0350     5.7639 H            1    LIG   0.0000
  37 H            4.8318    -0.2199     2.5896 H            1    LIG   0.0000
  38 H            7.1379    -0.7402     2.9868 H            1    LIG   0.0000
  39 H            6.1062    -2.5194     6.5943 H            1    LIG   0.0000
  40 H            3.8024    -1.9960     6.1882 H            1    LIG   0.0000
  41 H           -1.5923    -0.4721     1.8750 H            1    LIG   0.0000
  42 H           -1.3464    -0.8726     0.3111 H            1    LIG   0.0000
  43 H           -3.2449     2.8935     1.2885 H            1    LIG   0.0000
  44 H           -5.3626     3.2316     0.2318 H            1    LIG   0.0000
  45 H           -5.9869     1.9320    -1.6767 H            1    LIG   0.0000
  46 H           -5.4469     0.2406    -3.2448 H            1    LIG   0.0000
  47 H           -2.3489    -0.0644    -1.4854 H            1    LIG   0.0000
  48 H           -1.0009     1.0090    -3.1553 H            1    LIG   0.0000
  49 H           -0.9231    -0.9895    -4.5023 H            1    LIG   0.0000
  50 H            0.1444    -2.9480    -3.6698 H            1    LIG   0.0000
  51 H            1.1341    -2.9679    -1.5089 H            1    LIG   0.0000
  52 H            2.1744    -1.0994     0.4102 H            1    LIG   0.0000
@<TRIPOS>BOND
   1        1        2 2
   2        2        3 am
   3        3        4 am
   4        4        5 2
   5        4        6 am
   6        6        7 1
   7        7        8 ar
   8        8        9 ar
   9        9       10 ar
  10       10       11 1
  11       10       12 ar
  12       12       13 ar
  13       13        7 ar
  14        6       14 am
  15       14       15 2
  16       14       16 1
  17       16        2 1
  18       16       17 2
  19       17       18 1
  20       18       19 1
  21       19       20 1
  22       20       21 ar
  23       21       22 ar
  24       22       23 ar
  25       23       24 ar
  26       24       25 1
  27       24       26 ar
  28       26       20 ar
  29       19       27 1
  30       27       28 1
  31       28       29 ar
  32       29       30 ar
  33       30       31 ar
  34       31       32 ar
  35       32       33 ar
  36       33       28 ar
  37       33       34 1
  38       34       17 1
  39       19       35 1
  40        3       36 1
  41        8       37 1
  42        9       38 1
  43       12       39 1
  44       13       40 1
  45       18       41 1
  46       18       42 1
  47       21       43 1
  48       22       44 1
  49       23       45 1
  50       25       46 1
  51       26       47 1
  52       29       48 1
  53       30       49 1
  54       31       50 1
  55       32       51 1
  56       34       52 1

@<TRIPOS>MOLECULE

  52   56
SMALL
USER_CHARGES
@<TRIPOS>ATOM
   1 O1          -1.0676     0.3213     3.5223 O.2          1    LIG   0.0000
   2 C2           0.0746    -0.0749     3.6866 C.2          1    LIG   0.0000
   3 N3           0.6014    -0.1636     4.9809 N.am         1    LIG   0.0000
   4 C4           1.9356    -0.5243     5.2019 C.2          1    LIG   0.0000
   5 O5           2.3265    -0.6241     6.3535 O.2          1    LIG   0.0000
   6 N6           2.7915    -0.7591     4.1194 N.am         1    LIG   0.0000
   7 C7           4.1366    -1.0657     4.3584 C.ar         1    LIG   0.0000
   8 C8           5.1009    -0.6995     3.4248 C.ar         1    LIG   0.0000
   9 C9           6.4395    -1.0007     3.6534 C.ar         1    LIG   0.0000
  10 C10          6.7950    -1.6688     4.8208 C.ar         1    LIG   0.0000
  11 Cl11         8.5058    -2.0573     5.1200 Cl           1    LIG   0.0000
  12 C12          5.8372    -2.0395     5.7593 C.ar         1    LIG   0.0000
  13 C13          4.5009    -1.7345     5.5221 C.ar         1    LIG   0.0000
  14 C14          2.3339    -0.6967     2.7989 C.2          1    LIG   0.0000
  15 O15          3.0975    -0.8518     1.8599 O.2          1    LIG   0.0000
  16 C16          0.9254    -0.4369     2.5712 C.2          1    LIG   0.0000
  17 C17          0.4136    -0.5433     1.3561 C.2          1    LIG   0.0000
  18 C18         -1.0525    -0.2746     1.0567 C.3          1    LIG   0.0000
  19 C19         -1.2844     1.1700     0.6504 C.3          1    LIG   0.0000
  20 C20         -2.6326     1.3886    -0.0167 C.ar         1    LIG   0.0000
  21 C21         -2.9814     0.6258    -1.1264 C.ar         1    LIG   0.0000
  22 C22         -4.2173     0.8323    -1.7300 C.ar         1    LIG   0.0000
  23 C23         -5.0999     1.7880    -1.2380 C.ar         1    LIG   0.0000
  24 C24         -4.7305     2.5394    -0.1270 C.ar         1    LIG   0.0000
  25 O25         -5.5794     3.4697     0.3593 O.3          1    LIG   0.0000
  26 C26         -3.4998     2.3494     0.4924 C.ar         1    LIG   0.0000
  27 S27         -0.0770     1.5374    -0.6449 S.3          1    LIG   0.0000
  28 C28          0.0275     0.0918    -1.5794 C.ar         1    LIG   0.0000
  29 C29         -0.5632     0.1720    -2.8268 C.ar         1    LIG   0.0000
  30 C30         -0.5102    -0.9797    -3.5916 C.ar         1    LIG   0.0000
  31 C31          0.1125    -2.1237    -3.1045 C.ar         1    LIG   0.0000
  32 C32          0.6916    -2.1342    -1.8392 C.ar         1    LIG   0.0000
  33 C33          0.6662    -1.0013    -1.0219 C.ar         1    LIG   0.0000
  34 N34          1.2039    -0.9048     0.2680 N.pl3        1    LIG   0.0000
  35 H           -1.1685     1.7838     1.4313 H            1    LIG   0.0000
  36 H            0.0120     0.0350     5.7639 H            1    LIG   0.0000
  37 H            4.8318    -0.2199     2.5896 H            1    LIG   0.0000
  38 H            7.1379    -0.7402     2.9868 H            1    LIG   0.0000
  39 H            6.1062    -2.5194     6.5943 H            1    LIG   0.0000
  40 H            3.8024    -1.9960     6.1882 H            1    LIG   0.0000
  41 H           -1.5923    -0.4721     1.8750 H            1    LIG   0.0000
  42 H           -1.3464    -0.8726     0.3111 H            1    LIG   0.0000
  43 H           -2.3514    -0.0626    -1.4857 H            1    LIG   0.0000
  44 H           -4.4745     0.2868    -2.5277 H            1    LIG   0.0000
  45 H           -5.9869     1.9328    -1.6764 H            1    LIG   0.0000
  46 H           -6.4667     3.6144    -0.0786 H            1    LIG   0.0000
  47 H           -3.2428     2.8945     1.2904 H            1    LIG   0.0000
  48 H           -1.0009     1.0090    -3.1553 H            1    LIG   0.0000
  49 H           -0.9231    -0.9895    -4.5023 H            1    LIG   0.0000
  50 H            0.1444    -2.9480    -3.6698 H            1    LIG   0.0000
  51 H            1.1341    -2.9679    -1.5089 H            1    LIG   0.0000
  52 H            2.1744    -1.0994     0.4102 H            1    LIG   0.0000
@<TRIPOS>BOND
   1        1        2 2
   2        2        3 am
   3        3        4 am
   4        4        5 2
   5        4        6 am
   6        6        7 1
   7        7        8 ar
   8        8        9 ar
   9        9       10 ar
  10       10       11 1
  11       10       12 ar
  12       12       13 ar
  13       13        7 ar
  14        6       14 am
  15       14       15 2
  16       14       16 1
  17       16        2 1
  18       16       17 2
  19       17       18 1
  20       18       19 1
  21       19       20 1
  22       20       21 ar
  23       21       22 ar
  24       22       23 ar
  25       23       24 ar
  26       24       25 1
  27       24       26 ar
  28       26       20 ar
  29       19       27 1
  30       27       28 1
  31       28       29 ar
  32       29       30 ar
  33       30       31 ar
  34       31       32 ar
  35       32       33 ar
  36       33       28 ar
  37       33       34 1
  38       34       17 1
  39       19       35 1
  40        3       36 1
  41        8       37 1
  42        9       38 1
  43       12       39 1
  44       13       40 1
  45       18       41 1
  46       18       42 1
  47       21       43 1
  48       22       44 1
  49       23       45 1
  50       25       46 1
  51       26       47 1
  52       29       48 1
  53       30       49 1
  54       31       50 1
  55       32       51 1
  56       34       52 1

@<TRIPOS>MOLECULE

  52   56
SMALL
USER_CHARGES
@<TRIPOS>ATOM
   1 O1          -1.0676     0.3213     3.5223 O.2          1    LIG   0.0000
   2 C2           0.0746    -0.0749     3.6866 C.2          1    LIG   0.0000
   3 N3           0.6014    -0.1636     4.9809 N.am         1    LIG   0.0000
   4 C4           1.9356    -0.5243     5.2019 C.2          1    LIG   0.0000
   5 O5           2.3265    -0.6241     6.3535 O.2          1    LIG   0.0000
   6 N6           2.7915    -0.7591     4.1194 N.am         1    LIG   0.0000
   7 C7           4.1366    -1.0657     4.3584 C.ar         1    LIG   0.0000
   8 C8           4.9892    -1.2994     3.2841 C.ar         1    LIG   0.0000
   9 C9           6.3268    -1.6055     3.5121 C.ar         1    LIG   0.0000
  10 C10          6.7938    -1.6739     4.8207 C.ar         1    LIG   0.0000
  11 Cl11         8.5041    -2.0649     5.1199 Cl           1    LIG   0.0000
  12 C12          5.9481    -1.4425     5.9009 C.ar         1    LIG   0.0000
  13 C13          4.6119    -1.1374     5.6635 C.ar         1    LIG   0.0000
  14 C14          2.3339    -0.6967     2.7989 C.2          1    LIG   0.0000
  15 O15          3.0975    -0.8518     1.8599 O.2          1    LIG   0.0000
  16 C16          0.9254    -0.4369     2.5712 C.2          1    LIG   0.0000
  17 C17          0.4136    -0.5433     1.3561 C.2          1    LIG   0.0000
  18 C18         -1.0525    -0.2746     1.0567 C.3          1    LIG   0.0000
  19 C19         -1.2844     1.1700     0.6504 C.3          1    LIG   0.0000
  20 C20         -2.6326     1.3886    -0.0167 C.ar         1    LIG   0.0000
  21 C21         -2.9437     2.6379    -0.5434 C.ar         1    LIG   0.0000
  22 C22         -4.1795     2.8285    -1.1525 C.ar         1    LIG   0.0000
  23 C23         -5.0997     1.7892    -1.2380 C.ar         1    LIG   0.0000
  24 C24         -4.7675     0.5480    -0.7046 C.ar         1    LIG   0.0000
  25 O25         -5.6530    -0.4681    -0.7822 O.3          1    LIG   0.0000
  26 C26         -3.5375     0.3350    -0.0915 C.ar         1    LIG   0.0000
  27 S27         -0.0770     1.5374    -0.6449 S.3          1    LIG   0.0000
  28 C28          0.0275     0.0918    -1.5794 C.ar         1    LIG   0.0000
  29 C29         -0.5632     0.1720    -2.8268 C.ar         1    LIG   0.0000
  30 C30         -0.5102    -0.9797    -3.5916 C.ar         1    LIG   0.0000
  31 C31          0.1125    -2.1237    -3.1045 C.ar         1    LIG   0.0000
  32 C32          0.6916    -2.1342    -1.8392 C.ar         1    LIG   0.0000
  33 C33          0.6662    -1.0013    -1.0219 C.ar         1    LIG   0.0000
  34 N34          1.2039    -0.9048     0.2680 N.pl3        1    LIG   0.0000
  35 H           -1.1685     1.7838     1.4313 H            1    LIG   0.0000
  36 H            0.0120     0.0350     5.7639 H            1    LIG   0.0000
  37 H            4.6404    -1.2474     2.3483 H            1    LIG   0.0000
  38 H            6.9452    -1.7744     2.7446 H            1    LIG   0.0000
  39 H            6.2966    -1.4948     6.8367 H            1    LIG   0.0000
  40 H            3.9932    -0.9696     6.4310 H            1    LIG   0.0000
  41 H           -1.5923    -0.4721     1.8750 H            1    LIG   0.0000
  42 H           -1.3464    -0.8726     0.3111 H            1    LIG   0.0000
  43 H           -2.2870     3.3897    -0.4848 H            1    LIG   0.0000
  44 H           -4.4091     3.7240    -1.5337 H            1    LIG   0.0000
  45 H           -5.9871     1.9320    -1.6763 H            1    LIG   0.0000
  46 H           -6.5402    -0.3258    -1.2209 H            1    LIG   0.0000
  47 H           -3.3076    -0.5606     0.2893 H            1    LIG   0.0000
  48 H           -1.0009     1.0090    -3.1553 H            1    LIG   0.0000
  49 H           -0.9231    -0.9895    -4.5023 H            1    LIG   0.0000
  50 H            0.1444    -2.9480    -3.6698 H            1    LIG   0.0000
  51 H            1.1341    -2.9679    -1.5089 H            1    LIG   0.0000
  52 H            2.1744    -1.0994     0.4102 H            1    LIG   0.0000
@<TRIPOS>BOND
   1        1        2 2
   2        2        3 am
   3        3        4 am
   4        4        5 2
   5        4        6 am
   6        6        7 1
   7        7        8 ar
   8        8        9 ar
   9        9       10 ar
  10       10       11 1
  11       10       12 ar
  12       12       13 ar
  13       13        7 ar
  14        6       14 am
  15       14       15 2
  16       14       16 1
  17       16        2 1
  18       16       17 2
  19       17       18 1
  20       18       19 1
  21       19       20 1
  22       20       21 ar
  23       21       22 ar
  24       22       23 ar
  25       23       24 ar
  26       24       25 1
  27       24       26 ar
  28       26       20 ar
  29       19       27 1
  30       27       28 1
  31       28       29 ar
  32       29       30 ar
  33       30       31 ar
  34       31       32 ar
  35       32       33 ar
  36       33       28 ar
  37       33       34 1
  38       34       17 1
  39       19       35 1
  40        3       36 1
  41        8       37 1
  42        9       38 1
  43       12       39 1
  44       13       40 1
  45       18       41 1
  46       18       42 1
  47       21       43 1
  48       22       44 1
  49       23       45 1
  50       25       46 1
  51       26       47 1
  52       29       48 1
  53       30       49 1
  54       31       50 1
  55       32       51 1
  56       34       52 1

@<TRIPOS>MOLECULE

  52   56
SMALL
USER_CHARGES
@<TRIPOS>ATOM
   1 O1          -1.0676     0.3213     3.5223 O.2          1    LIG   0.0000
   2 C2           0.0746    -0.0749     3.6866 C.2          1    LIG   0.0000
   3 N3           0.6014    -0.1636     4.9809 N.am         1    LIG   0.0000
   4 C4           1.9356    -0.5243     5.2019 C.2          1    LIG   0.0000
   5 O5           2.3265    -0.6241     6.3535 O.2          1    LIG   0.0000
   6 N6           2.7915    -0.7591     4.1194 N.am         1    LIG   0.0000
   7 C7           4.1366    -1.0657     4.3584 C.ar         1    LIG   0.0000
   8 C8           4.9892    -1.2994     3.2841 C.ar         1    LIG   0.0000
   9 C9           6.3268    -1.6055     3.5121 C.ar         1    LIG   0.0000
  10 C10          6.7938    -1.6739     4.8207 C.ar         1    LIG   0.0000
  11 Cl11         8.5041    -2.0649     5.1199 Cl           1    LIG   0.0000
  12 C12          5.9481    -1.4425     5.9009 C.ar         1    LIG   0.0000
  13 C13          4.6119    -1.1374     5.6635 C.ar         1    LIG   0.0000
  14 C14          2.3339    -0.6967     2.7989 C.2          1    LIG   0.0000
  15 O15          3.0975    -0.8518     1.8599 O.2          1    LIG   0.0000
  16 C16          0.9254    -0.4369     2.5712 C.2          1    LIG   0.0000
  17 C17          0.4136    -0.5433     1.3561 C.2          1    LIG   0.0000
  18 C18         -1.0525    -0.2746     1.0567 C.3          1    LIG   0.0000
  19 C19         -1.2844     1.1700     0.6504 C.3          1    LIG   0.0000
  20 C20         -2.6326     1.3886    -0.0167 C.ar         1    LIG   0.0000
  21 C21         -3.8000     1.1983     0.7154 C.ar         1    LIG   0.0000
  22 C22         -5.0291     1.4012     0.0968 C.ar         1    LIG   0.0000
  23 C23         -5.1003     1.7886    -1.2370 C.ar         1    LIG   0.0000
  24 C24         -3.9201     1.9733    -1.9501 C.ar         1    LIG   0.0000
  25 O25         -3.9773     2.3496    -3.2454 O.3          1    LIG   0.0000
  26 C26         -2.6803     1.7764    -1.3516 C.ar         1    LIG   0.0000
  27 S27         -0.0770     1.5374    -0.6449 S.3          1    LIG   0.0000
  28 C28          0.0275     0.0918    -1.5794 C.ar         1    LIG   0.0000
  29 C29         -0.5632     0.1720    -2.8268 C.ar         1    LIG   0.0000
  30 C30         -0.5102    -0.9797    -3.5916 C.ar         1    LIG   0.0000
  31 C31          0.1125    -2.1237    -3.1045 C.ar         1    LIG   0.0000
  32 C32          0.6916    -2.1342    -1.8392 C.ar         1    LIG   0.0000
  33 C33          0.6662    -1.0013    -1.0219 C.ar         1    LIG   0.0000
  34 N34          1.2039    -0.9048     0.2680 N.pl3        1    LIG   0.0000
  35 H           -1.1685     1.7838     1.4313 H            1    LIG   0.0000
  36 H            0.0120     0.0350     5.7639 H            1    LIG   0.0000
  37 H            4.6404    -1.2474     2.3483 H            1    LIG   0.0000
  38 H            6.9452    -1.7744     2.7446 H            1    LIG   0.0000
  39 H            6.2966    -1.4948     6.8367 H            1    LIG   0.0000
  40 H            3.9932    -0.9696     6.4310 H            1    LIG   0.0000
  41 H           -1.5923    -0.4721     1.8750 H            1    LIG   0.0000
  42 H           -1.3464    -0.8726     0.3111 H            1    LIG   0.0000
  43 H           -3.7560     0.9191     1.6746 H            1    LIG   0.0000
  44 H           -5.8721     1.2668     0.6177 H            1    LIG   0.0000
  45 H           -5.9867     1.9323    -1.6769 H            1    LIG   0.0000
  46 H           -4.8636     2.4939    -3.6855 H            1    LIG   0.0000
  47 H           -1.8373     1.9113    -1.8722 H            1    LIG   0.0000
  48 H           -1.0009     1.0090    -3.1553 H            1    LIG   0.0000
  49 H           -0.9231    -0.9895    -4.5023 H            1    LIG   0.0000
  50 H            0.1444    -2.9480    -3.6698 H            1    LIG   0.0000
  51 H            1.1341    -2.9679    -1.5089 H            1    LIG   0.0000
  52 H            2.1744    -1.0994     0.4102 H            1    LIG   0.0000
@<TRIPOS>BOND
   1        1        2 2
   2        2        3 am
   3        3        4 am
   4        4        5 2
   5        4        6 am
   6        6        7 1
   7        7        8 ar
   8        8        9 ar
   9        9       10 ar
  10       10       11 1
  11       10       12 ar
  12       12       13 ar
  13       13        7 ar
  14        6       14 am
  15       14       15 2
  16       14       16 1
  17       16        2 1
  18       16       17 2
  19       17       18 1
  20       18       19 1
  21       19       20 1
  22       20       21 ar
  23       21       22 ar
  24       22       23 ar
  25       23       24 ar
  26       24       25 1
  27       24       26 ar
  28       26       20 ar
  29       19       27 1
  30       27       28 1
  31       28       29 ar
  32       29       30 ar
  33       30       31 ar
  34       31       32 ar
  35       32       33 ar
  36       33       28 ar
  37       33       34 1
  38       34       17 1
  39       19       35 1
  40        3       36 1
  41        8       37 1
  42        9       38 1
  43       12       39 1
  44       13       40 1
  45       18       41 1
  46       18       42 1
  47       21       43 1
  48       22       44 1
  49       23       45 1
  50       25       46 1
  51       26       47 1
  52       29       48 1
  53       30       49 1
  54       31       50 1
  55       32       51 1
  56       34       52 1

@<TRIPOS>MOLECULE

  52   56
SMALL
USER_CHARGES
@<TRIPOS>ATOM
   1 O1          -1.0676     0.3213     3.5223 O.2          1    LIG   0.0000
   2 C2           0.0746    -0.0749     3.6866 C.2          1    LIG   0.0000
   3 N3           0.6014    -0.1636     4.9809 N.am         1    LIG   0.0000
   4 C4           1.9356    -0.5243     5.2019 C.2          1    LIG   0.0000
   5 O5           2.3265    -0.6241     6.3535 O.2          1    LIG   0.0000
   6 N6           2.7915    -0.7591     4.1194 N.am         1    LIG   0.0000
   7 C7           4.1366    -1.0657     4.3584 C.ar         1    LIG   0.0000
   8 C8           4.9892    -1.2994     3.2841 C.ar         1    LIG   0.0000
   9 C9           6.3268    -1.6055     3.5121 C.ar         1    LIG   0.0000
  10 C10          6.7938    -1.6739     4.8207 C.ar         1    LIG   0.0000
  11 Cl11         8.5041    -2.0649     5.1199 Cl           1    LIG   0.0000
  12 C12          5.9481    -1.4425     5.9009 C.ar         1    LIG   0.0000
  13 C13          4.6119    -1.1374     5.6635 C.ar         1    LIG   0.0000
  14 C14          2.3339    -0.6967     2.7989 C.2          1    LIG   0.0000
  15 O15          3.0975    -0.8518     1.8599 O.2          1    LIG   0.0000
  16 C16          0.9254    -0.4369     2.5712 C.2          1    LIG   0.0000
  17 C17          0.4136    -0.5433     1.3561 C.2          1    LIG   0.0000
  18 C18         -1.0525    -0.2746     1.0567 C.3          1    LIG   0.0000
  19 C19         -1.2844     1.1700     0.6504 C.3          1    LIG   0.0000
  20 C20         -2.6326     1.3886    -0.0167 C.ar         1    LIG   0.0000
  21 C21         -3.5397     0.3368    -0.0929 C.ar         1    LIG   0.0000
  22 C22         -4.7711     0.5461    -0.7046 C.ar         1    LIG   0.0000
  23 C23         -5.1002     1.7880    -1.2373 C.ar         1    LIG   0.0000
  24 C24         -4.1779     2.8258    -1.1499 C.ar         1    LIG   0.0000
  25 O25         -4.4868     4.0356    -1.6634 O.3          1    LIG   0.0000
  26 C26         -2.9409     2.6389    -0.5423 C.ar         1    LIG   0.0000
  27 S27         -0.0770     1.5374    -0.6449 S.3          1    LIG   0.0000
  28 C28          0.0275     0.0918    -1.5794 C.ar         1    LIG   0.0000
  29 C29         -0.5632     0.1720    -2.8268 C.ar         1    LIG   0.0000
  30 C30         -0.5102    -0.9797    -3.5916 C.ar         1    LIG   0.0000
  31 C31          0.1125    -2.1237    -3.1045 C.ar         1    LIG   0.0000
  32 C32          0.6916    -2.1342    -1.8392 C.ar         1    LIG   0.0000
  33 C33          0.6662    -1.0013    -1.0219 C.ar         1    LIG   0.0000
  34 N34          1.2039    -0.9048     0.2680 N.pl3        1    LIG   0.0000
  35 H           -1.1685     1.7838     1.4313 H            1    LIG   0.0000
  36 H            0.0120     0.0350     5.7639 H            1    LIG   0.0000
  37 H            4.6404    -1.2474     2.3483 H            1    LIG   0.0000
  38 H            6.9452    -1.7744     2.7446 H            1    LIG   0.0000
  39 H            6.2966    -1.4948     6.8367 H            1    LIG   0.0000
  40 H            3.9932    -0.9696     6.4310 H            1    LIG   0.0000
  41 H           -1.5923    -0.4721     1.8750 H            1    LIG   0.0000
  42 H           -1.3464    -0.8726     0.3111 H            1    LIG   0.0000
  43 H           -3.3093    -0.5589     0.2875 H            1    LIG   0.0000
  44 H           -5.4280    -0.2056    -0.7621 H            1    LIG   0.0000
  45 H           -5.9868     1.9327    -1.6768 H            1    LIG   0.0000
  46 H           -5.3735     4.1808    -2.1024 H            1    LIG   0.0000
  47 H           -2.2842     3.3907    -0.4843 H            1    LIG   0.0000
  48 H           -1.0009     1.0090    -3.1553 H            1    LIG   0.0000
  49 H           -0.9231    -0.9895    -4.5023 H            1    LIG   0.0000
  50 H            0.1444    -2.9480    -3.6698 H            1    LIG   0.0000
  51 H            1.1341    -2.9679    -1.5089 H            1    LIG   0.0000
  52 H            2.1744    -1.0994     0.4102 H            1    LIG   0.0000
@<TRIPOS>BOND
   1        1        2 2
   2        2        3 am
   3        3        4 am
   4        4        5 2
   5        4        6 am
   6        6        7 1
   7        7        8 ar
   8        8        9 ar
   9        9       10 ar
  10       10       11 1
  11       10       12 ar
  12       12       13 ar
  13       13        7 ar
  14        6       14 am
  15       14       15 2
  16       14       16 1
  17       16        2 1
  18       16       17 2
  19       17       18 1
  20       18       19 1
  21       19       20 1
  22       20       21 ar
  23       21       22 ar
  24       22       23 ar
  25       23       24 ar
  26       24       25 1
  27       24       26 ar
  28       26       20 ar
  29       19       27 1
  30       27       28 1
  31       28       29 ar
  32       29       30 ar
  33       30       31 ar
  34       31       32 ar
  35       32       33 ar
  36       33       28 ar
  37       33       34 1
  38       34       17 1
  39       19       35 1
  40        3       36 1
  41        8       37 1
  42        9       38 1
  43       12       39 1
  44       13       40 1
  45       18       41 1
  46       18       42 1
  47       21       43 1
  48       22       44 1
  49       23       45 1
  50       25       46 1
  51       26       47 1
  52       29       48 1
  53       30       49 1
  54       31       50 1
  55       32       51 1
  56       34       52 1

@<TRIPOS>MOLECULE

  52   56
SMALL
USER_CHARGES
@<TRIPOS>ATOM
   1 O1          -1.0676     0.3213     3.5223 O.2          1    LIG   0.0000
   2 C2           0.0746    -0.0749     3.6866 C.2          1    LIG   0.0000
   3 N3           0.6014    -0.1636     4.9809 N.am         1    LIG   0.0000
   4 C4           1.9356    -0.5243     5.2019 C.2          1    LIG   0.0000
   5 O5           2.3265    -0.6241     6.3535 O.2          1    LIG   0.0000
   6 N6           2.7915    -0.7591     4.1194 N.am         1    LIG   0.0000
   7 C7           4.1366    -1.0657     4.3584 C.ar         1    LIG   0.0000
   8 C8           4.9892    -1.2994     3.2841 C.ar         1    LIG   0.0000
   9 C9           6.3268    -1.6055     3.5121 C.ar         1    LIG   0.0000
  10 C10          6.7938    -1.6739     4.8207 C.ar         1    LIG   0.0000
  11 Cl11         8.5041    -2.0649     5.1199 Cl           1    LIG   0.0000
  12 C12          5.9481    -1.4425     5.9009 C.ar         1    LIG   0.0000
  13 C13          4.6119    -1.1374     5.6635 C.ar         1    LIG   0.0000
  14 C14          2.3339    -0.6967     2.7989 C.2          1    LIG   0.0000
  15 O15          3.0975    -0.8518     1.8599 O.2          1    LIG   0.0000
  16 C16          0.9254    -0.4369     2.5712 C.2          1    LIG   0.0000
  17 C17          0.4136    -0.5433     1.3561 C.2          1    LIG   0.0000
  18 C18         -1.0525    -0.2746     1.0567 C.3          1    LIG   0.0000
  19 C19         -1.2844     1.1700     0.6504 C.3          1    LIG   0.0000
  20 C20         -2.6326     1.3886    -0.0167 C.ar         1    LIG   0.0000
  21 C21         -2.6835     1.7763    -1.3517 C.ar         1    LIG   0.0000
  22 C22         -3.9215     1.9735    -1.9539 C.ar         1    LIG   0.0000
  23 C23         -5.0996     1.7886    -1.2383 C.ar         1    LIG   0.0000
  24 C24         -5.0253     1.4005     0.0956 C.ar         1    LIG   0.0000
  25 O25         -6.1625     1.2179     0.7999 O.3          1    LIG   0.0000
  26 C26         -3.7981     1.1975     0.7178 C.ar         1    LIG   0.0000
  27 S27         -0.0770     1.5374    -0.6449 S.3          1    LIG   0.0000
  28 C28          0.0275     0.0918    -1.5794 C.ar         1    LIG   0.0000
  29 C29         -0.5632     0.1720    -2.8268 C.ar         1    LIG   0.0000
  30 C30         -0.5102    -0.9797    -3.5916 C.ar         1    LIG   0.0000
  31 C31          0.1125    -2.1237    -3.1045 C.ar         1    LIG   0.0000
  32 C32          0.6916    -2.1342    -1.8392 C.ar         1    LIG   0.0000
  33 C33          0.6662    -1.0013    -1.0219 C.ar         1    LIG   0.0000
  34 N34          1.2039    -0.9048     0.2680 N.pl3        1    LIG   0.0000
  35 H           -1.1685     1.7838     1.4313 H            1    LIG   0.0000
  36 H            0.0120     0.0350     5.7639 H            1    LIG   0.0000
  37 H            4.6404    -1.2474     2.3483 H            1    LIG   0.0000
  38 H            6.9452    -1.7744     2.7446 H            1    LIG   0.0000
  39 H            6.2966    -1.4948     6.8367 H            1    LIG   0.0000
  40 H            3.9932    -0.9696     6.4310 H            1    LIG   0.0000
  41 H           -1.5923    -0.4721     1.8750 H            1    LIG   0.0000
  42 H           -1.3464    -0.8726     0.3111 H            1    LIG   0.0000
  43 H           -1.8402     1.9117    -1.8719 H            1    LIG   0.0000
  44 H           -3.9651     2.2516    -2.9135 H            1    LIG   0.0000
  45 H           -5.9871     1.9324    -1.6761 H            1    LIG   0.0000
  46 H           -7.0501     1.3611     0.3622 H            1    LIG   0.0000
  47 H           -3.7545     0.9188     1.6772 H            1    LIG   0.0000
  48 H           -1.0009     1.0090    -3.1553 H            1    LIG   0.0000
  49 H           -0.9231    -0.9895    -4.5023 H            1    LIG   0.0000
  50 H            0.1444    -2.9480    -3.6698 H            1    LIG   0.0000
  51 H            1.1341    -2.9679    -1.5089 H            1    LIG   0.0000
  52 H            2.1744    -1.0994     0.4102 H            1    LIG   0.0000
@<TRIPOS>BOND
   1        1        2 2
   2        2        3 am
   3        3        4 am
   4        4        5 2
   5        4        6 am
   6        6        7 1
   7        7        8 ar
   8        8        9 ar
   9        9       10 ar
  10       10       11 1
  11       10       12 ar
  12       12       13 ar
  13       13        7 ar
  14        6       14 am
  15       14       15 2
  16       14       16 1
  17       16        2 1
  18       16       17 2
  19       17       18 1
  20       18       19 1
  21       19       20 1
  22       20       21 ar
  23       21       22 ar
  24       22       23 ar
  25       23       24 ar
  26       24       25 1
  27       24       26 ar
  28       26       20 ar
  29       19       27 1
  30       27       28 1
  31       28       29 ar
  32       29       30 ar
  33       30       31 ar
  34       31       32 ar
  35       32       33 ar
  36       33       28 ar
  37       33       34 1
  38       34       17 1
  39       19       35 1
  40        3       36 1
  41        8       37 1
  42        9       38 1
  43       12       39 1
  44       13       40 1
  45       18       41 1
  46       18       42 1
  47       21       43 1
  48       22       44 1
  49       23       45 1
  50       25       46 1
  51       26       47 1
  52       29       48 1
  53       30       49 1
  54       31       50 1
  55       32       51 1
  56       34       52 1

