@<TRIPOS>MOLECULE
*****
 52 56 0 0 0
SMALL
USER_CHARGES

@<TRIPOS>ATOM
      1 O1         -1.0676    0.3213    3.5223 O.2     1  LIG1        0.0000
      2 C2          0.0746   -0.0749    3.6866 C.2     1  LIG1        0.0000
      3 N3          0.6014   -0.1636    4.9809 N.am    1  LIG1        0.0000
      4 C4          1.9356   -0.5243    5.2019 C.2     1  LIG1        0.0000
      5 O5          2.3265   -0.6241    6.3535 O.2     1  LIG1        0.0000
      6 N6          2.7915   -0.7591    4.1194 N.am    1  LIG1        0.0000
      7 C7          4.1366   -1.0657    4.3584 C.3     1  LIG1        0.0000
      8 C8          4.9892   -1.2994    3.2841 C.3     1  LIG1        0.0000
      9 C9          6.3268   -1.6055    3.5121 C.3     1  LIG1        0.0000
     10 C10         6.7938   -1.6739    4.8207 C.3     1  LIG1        0.0000
     11 Cl11        8.5041   -2.0649    5.1199 Cl      1  LIG1        0.0000
     12 C12         5.9481   -1.4425    5.9009 C.3     1  LIG1        0.0000
     13 C13         4.6119   -1.1374    5.6635 C.3     1  LIG1        0.0000
     14 C14         2.3339   -0.6967    2.7989 C.2     1  LIG1        0.0000
     15 O15         3.0975   -0.8518    1.8599 O.2     1  LIG1        0.0000
     16 C16         0.9254   -0.4369    2.5712 C.2     1  LIG1        0.0000
     17 C17         0.4136   -0.5433    1.3561 C.2     1  LIG1        0.0000
     18 C18        -1.0525   -0.2746    1.0567 C.3     1  LIG1        0.0000
     19 C19        -1.2844    1.1700    0.6504 C.3     1  LIG1        0.0000
     20 C20        -2.6326    1.3886   -0.0167 C.3     1  LIG1        0.0000
     21 C21        -2.9437    2.6379   -0.5434 C.3     1  LIG1        0.0000
     22 C22        -4.1795    2.8285   -1.1525 C.3     1  LIG1        0.0000
     23 C23        -5.0997    1.7892   -1.2380 C.3     1  LIG1        0.0000
     24 C24        -4.7675    0.5480   -0.7046 C.3     1  LIG1        0.0000
     25 O25        -5.6530   -0.4681   -0.7822 O.2     1  LIG1        0.0000
     26 C26        -3.5375    0.3350   -0.0915 C.3     1  LIG1        0.0000
     27 S27        -0.0770    1.5374   -0.6449 S.3     1  LIG1        0.0000
     28 C28         0.0275    0.0918   -1.5794 C.3     1  LIG1        0.0000
     29 C29        -0.5632    0.1720   -2.8268 C.3     1  LIG1        0.0000
     30 C30        -0.5102   -0.9797   -3.5916 C.3     1  LIG1        0.0000
     31 C31         0.1125   -2.1237   -3.1045 C.3     1  LIG1        0.0000
     32 C32         0.6916   -2.1342   -1.8392 C.3     1  LIG1        0.0000
     33 C33         0.6662   -1.0013   -1.0219 C.3     1  LIG1        0.0000
     34 N34         1.2039   -0.9048    0.2680 N.pl3   1  LIG1        0.0000
     35 H          -1.1685    1.7838    1.4313 H       1  LIG1        0.0000
     36 H           0.0120    0.0350    5.7639 H       1  LIG1        0.0000
     37 H           4.6404   -1.2474    2.3483 H       1  LIG1        0.0000
     38 H           6.9452   -1.7744    2.7446 H       1  LIG1        0.0000
     39 H           6.2966   -1.4948    6.8367 H       1  LIG1        0.0000
     40 H           3.9932   -0.9696    6.4310 H       1  LIG1        0.0000
     41 H          -1.5923   -0.4721    1.8750 H       1  LIG1        0.0000
     42 H          -1.3464   -0.8726    0.3111 H       1  LIG1        0.0000
     43 H          -2.2870    3.3897   -0.4848 H       1  LIG1        0.0000
     44 H          -4.4091    3.7240   -1.5337 H       1  LIG1        0.0000
     45 H          -5.9871    1.9320   -1.6763 H       1  LIG1        0.0000
     46 H          -6.5402   -0.3258   -1.2209 H       1  LIG1        0.0000
     47 H          -3.3076   -0.5606    0.2893 H       1  LIG1        0.0000
     48 H          -1.0009    1.0090   -3.1553 H       1  LIG1        0.0000
     49 H          -0.9231   -0.9895   -4.5023 H       1  LIG1        0.0000
     50 H           0.1444   -2.9480   -3.6698 H       1  LIG1        0.0000
     51 H           1.1341   -2.9679   -1.5089 H       1  LIG1        0.0000
     52 H           2.1744   -1.0994    0.4102 H       1  LIG1        0.0000
@<TRIPOS>BOND
     1     1     2    2
     2     2     3   am
     3     3     4   am
     4     4     5    2
     5     4     6   am
     6     6     7    1
     7     7     8   ar
     8     8     9   ar
     9     9    10   ar
    10    10    11    1
    11    10    12   ar
    12    12    13   ar
    13    13     7   ar
    14     6    14   am
    15    14    15    2
    16    14    16    1
    17    16     2    1
    18    16    17    2
    19    17    18    1
    20    18    19    1
    21    19    20    1
    22    20    21   ar
    23    21    22   ar
    24    22    23   ar
    25    23    24   ar
    26    24    25    1
    27    24    26   ar
    28    26    20   ar
    29    19    27    1
    30    27    28    1
    31    28    29   ar
    32    29    30   ar
    33    30    31   ar
    34    31    32   ar
    35    32    33   ar
    36    33    28   ar
    37    33    34    1
    38    34    17    1
    39    19    35    1
    40     3    36    1
    41     8    37    1
    42     9    38    1
    43    12    39    1
    44    13    40    1
    45    18    41    1
    46    18    42    1
    47    21    43    1
    48    22    44    1
    49    23    45    1
    50    25    46    1
    51    26    47    1
    52    29    48    1
    53    30    49    1
    54    31    50    1
    55    32    51    1
    56    34    52    1
