@<TRIPOS>MOLECULE

  56   61
SMALL
USER_CHARGES
@<TRIPOS>ATOM
   1 C1          -0.4615    -9.1030     0.9797 C.3          1    LIG   0.0000
   2 C2          -0.7263    -7.6061     0.9812 C.ar         1    LIG   0.0000
   3 C3          -0.8464    -6.9247    -0.2258 C.ar         1    LIG   0.0000
   4 C4          -1.0887    -5.5545    -0.2191 C.ar         1    LIG   0.0000
   5 C5          -1.2094    -4.8751     0.9891 C.ar         1    LIG   0.0000
   6 N6          -1.4528    -3.4964     0.9956 N.pl3        1    LIG   0.0000
   7 C7          -2.7511    -3.0568     0.9968 C.2          1    LIG   0.0000
   8 O8          -3.6561    -3.8803     0.9911 O.2          1    LIG   0.0000
   9 C9          -2.9968    -1.6559     1.0037 C.ar         1    LIG   0.0000
  10 C10         -4.2966    -1.1578     1.0075 C.ar         1    LIG   0.0000
  11 C11         -4.5588     0.2076     1.0172 C.ar         1    LIG   0.0000
  12 C12         -3.4837     1.0893     1.0223 C.ar         1    LIG   0.0000
  13 C13         -2.1883     0.5834     1.0178 C.ar         1    LIG   0.0000
  14 C14         -1.9103    -0.7829     1.0083 C.ar         1    LIG   0.0000
  15 N15         -0.6212    -1.2667     1.0020 N.pl3        1    LIG   0.0000
  16 C16          0.6203    -0.6985     1.0000 C.2          1    LIG   0.0000
  17 S17          1.0000     1.0000     1.0000 S.3          1    LIG   0.0000
  18 C18          2.8100     1.0000     1.0000 C.3          1    LIG   0.0000
  19 C19          3.3167     2.4332     1.0000 C.2          1    LIG   0.0000
  20 N20          3.5746     3.1627    -0.0552 N.2          1    LIG   0.0000
  21 O21          3.9754     4.3029     0.3168 O.2          1    LIG   0.0000
  22 C22          3.9904     4.3435     1.6268 C.2          1    LIG   0.0000
  23 C23          4.3948     5.4830     2.4275 C.ar         1    LIG   0.0000
  24 C24          4.3673     5.4023     3.8161 C.ar         1    LIG   0.0000
  25 C25          4.7551     6.4948     4.5843 C.ar         1    LIG   0.0000
  26 C26          5.1721     7.6685     3.9645 C.ar         1    LIG   0.0000
  27 C27          5.2004     7.7496     2.5757 C.ar         1    LIG   0.0000
  28 C28          4.8110     6.6577     1.8073 C.ar         1    LIG   0.0000
  29 O29          4.8481     6.7656     0.4619 O.3          1    LIG   0.0000
  30 N30          3.5793     3.1914     2.0972 N.2          1    LIG   0.0000
  31 N31          1.5229    -1.6490     1.0000 N.2          1    LIG   0.0000
  32 N32          0.8940    -2.8056     0.9988 N.2          1    LIG   0.0000
  33 C33         -0.4065    -2.6036     0.9996 C.2          1    LIG   0.0000
  34 C34         -1.0872    -5.5659     2.1913 C.ar         1    LIG   0.0000
  35 C35         -1.2151    -4.8451     3.5237 C.3          1    LIG   0.0000
  36 C36         -0.8451    -6.9358     2.1942 C.ar         1    LIG   0.0000
  37 H           -0.4033    -9.4303     0.0366 H            1    LIG   0.0000
  38 H            0.4005    -9.2896     1.4510 H            1    LIG   0.0000
  39 H           -1.2075    -9.5740     1.4505 H            1    LIG   0.0000
  40 H           -0.7593    -7.4163    -1.0922 H            1    LIG   0.0000
  41 H           -1.1761    -5.0581    -1.0827 H            1    LIG   0.0000
  42 H           -5.0632    -1.7999     1.0032 H            1    LIG   0.0000
  43 H           -5.4992     0.5478     1.0203 H            1    LIG   0.0000
  44 H           -3.6404     2.0769     1.0292 H            1    LIG   0.0000
  45 H           -1.4232     1.2272     1.0215 H            1    LIG   0.0000
  46 H            3.1433     0.5286     0.1835 H            1    LIG   0.0000
  47 H            3.1433     0.5286     1.8165 H            1    LIG   0.0000
  48 H            4.0687     4.5584     4.2619 H            1    LIG   0.0000
  49 H            4.7342     6.4368     5.5824 H            1    LIG   0.0000
  50 H            5.4515     8.4538     4.5170 H            1    LIG   0.0000
  51 H            5.5007     8.5929     2.1301 H            1    LIG   0.0000
  52 H            5.1505     7.6188     0.0368 H            1    LIG   0.0000
  53 H           -1.0991    -5.5007     4.2698 H            1    LIG   0.0000
  54 H           -0.5112    -4.1378     3.5889 H            1    LIG   0.0000
  55 H           -2.1191    -4.4226     3.5887 H            1    LIG   0.0000
  56 H           -0.7577    -7.4325     3.0577 H            1    LIG   0.0000
@<TRIPOS>BOND
   1        1        2 1
   2        2        3 ar
   3        3        4 ar
   4        4        5 ar
   5        5        6 1
   6        6        7 1
   7        7        8 2
   8        7        9 1
   9        9       10 ar
  10       10       11 ar
  11       11       12 ar
  12       12       13 ar
  13       13       14 ar
  14       14        9 ar
  15       14       15 1
  16       15       16 1
  17       16       17 1
  18       17       18 1
  19       18       19 1
  20       19       20 2
  21       20       21 1
  22       21       22 1
  23       22       23 1
  24       23       24 ar
  25       24       25 ar
  26       25       26 ar
  27       26       27 ar
  28       27       28 ar
  29       28       23 ar
  30       28       29 1
  31       22       30 2
  32       30       19 1
  33       16       31 2
  34       31       32 1
  35       32       33 2
  36       33        6 1
  37       33       15 1
  38        5       34 ar
  39       34       35 1
  40       34       36 ar
  41       36        2 ar
  42        1       37 1
  43        1       38 1
  44        1       39 1
  45        3       40 1
  46        4       41 1
  47       10       42 1
  48       11       43 1
  49       12       44 1
  50       13       45 1
  51       18       46 1
  52       18       47 1
  53       24       48 1
  54       25       49 1
  55       26       50 1
  56       27       51 1
  57       29       52 1
  58       35       53 1
  59       35       54 1
  60       35       55 1
  61       36       56 1

@<TRIPOS>MOLECULE

  56   61
SMALL
USER_CHARGES
@<TRIPOS>ATOM
   1 C1          -0.4615    -9.1030     0.9797 C.3          1    LIG   0.0000
   2 C2          -0.7263    -7.6061     0.9812 C.ar         1    LIG   0.0000
   3 C3          -0.8464    -6.9247    -0.2258 C.ar         1    LIG   0.0000
   4 C4          -1.0887    -5.5545    -0.2191 C.ar         1    LIG   0.0000
   5 C5          -1.2094    -4.8751     0.9891 C.ar         1    LIG   0.0000
   6 N6          -1.4528    -3.4964     0.9956 N.pl3        1    LIG   0.0000
   7 C7          -2.7511    -3.0568     0.9968 C.2          1    LIG   0.0000
   8 O8          -3.6561    -3.8803     0.9911 O.2          1    LIG   0.0000
   9 C9          -2.9968    -1.6559     1.0037 C.ar         1    LIG   0.0000
  10 C10         -4.2966    -1.1578     1.0075 C.ar         1    LIG   0.0000
  11 C11         -4.5588     0.2076     1.0172 C.ar         1    LIG   0.0000
  12 C12         -3.4837     1.0893     1.0223 C.ar         1    LIG   0.0000
  13 C13         -2.1883     0.5834     1.0178 C.ar         1    LIG   0.0000
  14 C14         -1.9103    -0.7829     1.0083 C.ar         1    LIG   0.0000
  15 N15         -0.6212    -1.2667     1.0020 N.pl3        1    LIG   0.0000
  16 C16          0.6203    -0.6985     1.0000 C.2          1    LIG   0.0000
  17 S17          1.0000     1.0000     1.0000 S.3          1    LIG   0.0000
  18 C18          2.8100     1.0000     1.0000 C.3          1    LIG   0.0000
  19 C19          3.3167     0.5098     2.3468 C.2          1    LIG   0.0000
  20 N20          3.5746     1.2519     3.3931 N.2          1    LIG   0.0000
  21 O21          3.9754     0.5123     4.3374 O.2          1    LIG   0.0000
  22 C22          3.9904    -0.7326     3.9275 C.2          1    LIG   0.0000
  23 C23          4.3948    -1.8747     4.7244 C.ar         1    LIG   0.0000
  24 C24          4.3673    -3.1519     4.1736 C.ar         1    LIG   0.0000
  25 C25          4.7551    -4.2475     4.9375 C.ar         1    LIG   0.0000
  26 C26          5.1721    -4.0665     6.2524 C.ar         1    LIG   0.0000
  27 C27          5.2004    -2.7892     6.8036 C.ar         1    LIG   0.0000
  28 C28          4.8110    -1.6937     6.0404 C.ar         1    LIG   0.0000
  29 O29          4.8481    -0.4663     6.6019 O.3          1    LIG   0.0000
  30 N30          3.5793    -0.7805     2.6840 N.2          1    LIG   0.0000
  31 N31          1.5229    -1.6490     1.0000 N.2          1    LIG   0.0000
  32 N32          0.8940    -2.8056     0.9988 N.2          1    LIG   0.0000
  33 C33         -0.4065    -2.6036     0.9996 C.2          1    LIG   0.0000
  34 C34         -1.0872    -5.5659     2.1913 C.ar         1    LIG   0.0000
  35 C35         -1.2151    -4.8451     3.5237 C.3          1    LIG   0.0000
  36 C36         -0.8451    -6.9358     2.1942 C.ar         1    LIG   0.0000
  37 H           -0.4033    -9.4303     0.0366 H            1    LIG   0.0000
  38 H            0.4005    -9.2896     1.4510 H            1    LIG   0.0000
  39 H           -1.2075    -9.5740     1.4505 H            1    LIG   0.0000
  40 H           -0.7593    -7.4163    -1.0922 H            1    LIG   0.0000
  41 H           -1.1761    -5.0581    -1.0827 H            1    LIG   0.0000
  42 H           -5.0632    -1.7999     1.0032 H            1    LIG   0.0000
  43 H           -5.4992     0.5478     1.0203 H            1    LIG   0.0000
  44 H           -3.6404     2.0769     1.0292 H            1    LIG   0.0000
  45 H           -1.4232     1.2272     1.0215 H            1    LIG   0.0000
  46 H            3.1433     1.9285     0.8363 H            1    LIG   0.0000
  47 H            3.1433     0.3940     0.2778 H            1    LIG   0.0000
  48 H            4.0687    -3.2823     3.2282 H            1    LIG   0.0000
  49 H            4.7342    -5.1656     4.5416 H            1    LIG   0.0000
  50 H            5.4515    -4.8543     6.8014 H            1    LIG   0.0000
  51 H            5.5007    -2.6589     7.7485 H            1    LIG   0.0000
  52 H            5.1505    -0.3587     7.5491 H            1    LIG   0.0000
  53 H           -1.0991    -5.5007     4.2698 H            1    LIG   0.0000
  54 H           -0.5112    -4.1378     3.5889 H            1    LIG   0.0000
  55 H           -2.1191    -4.4226     3.5887 H            1    LIG   0.0000
  56 H           -0.7577    -7.4325     3.0577 H            1    LIG   0.0000
@<TRIPOS>BOND
   1        1        2 1
   2        2        3 ar
   3        3        4 ar
   4        4        5 ar
   5        5        6 1
   6        6        7 1
   7        7        8 2
   8        7        9 1
   9        9       10 ar
  10       10       11 ar
  11       11       12 ar
  12       12       13 ar
  13       13       14 ar
  14       14        9 ar
  15       14       15 1
  16       15       16 1
  17       16       17 1
  18       17       18 1
  19       18       19 1
  20       19       20 2
  21       20       21 1
  22       21       22 1
  23       22       23 1
  24       23       24 ar
  25       24       25 ar
  26       25       26 ar
  27       26       27 ar
  28       27       28 ar
  29       28       23 ar
  30       28       29 1
  31       22       30 2
  32       30       19 1
  33       16       31 2
  34       31       32 1
  35       32       33 2
  36       33        6 1
  37       33       15 1
  38        5       34 ar
  39       34       35 1
  40       34       36 ar
  41       36        2 ar
  42        1       37 1
  43        1       38 1
  44        1       39 1
  45        3       40 1
  46        4       41 1
  47       10       42 1
  48       11       43 1
  49       12       44 1
  50       13       45 1
  51       18       46 1
  52       18       47 1
  53       24       48 1
  54       25       49 1
  55       26       50 1
  56       27       51 1
  57       29       52 1
  58       35       53 1
  59       35       54 1
  60       35       55 1
  61       36       56 1

@<TRIPOS>MOLECULE

  56   61
SMALL
USER_CHARGES
@<TRIPOS>ATOM
   1 C1          -1.2006    -8.9378     1.7776 C.3          1    LIG   0.0000
   2 C2          -0.8959    -7.5681     1.1927 C.ar         1    LIG   0.0000
   3 C3           0.4213    -7.2081     0.9268 C.ar         1    LIG   0.0000
   4 C4           0.6950    -5.9532     0.3914 C.ar         1    LIG   0.0000
   5 C5          -0.3452    -5.0683     0.1254 C.ar         1    LIG   0.0000
   6 N6          -0.0697    -3.8056    -0.4129 N.pl3        1    LIG   0.0000
   7 C7          -0.0391    -3.6631    -1.7758 C.2          1    LIG   0.0000
   8 O8          -0.2519    -4.6413    -2.4794 O.2          1    LIG   0.0000
   9 C9           0.2408    -2.3796    -2.3211 C.ar         1    LIG   0.0000
  10 C10          0.2812    -2.1811    -3.6983 C.ar         1    LIG   0.0000
  11 C11          0.5500    -0.9343    -4.2521 C.ar         1    LIG   0.0000
  12 C12          0.7838     0.1354    -3.3952 C.ar         1    LIG   0.0000
  13 C13          0.7422    -0.0717    -2.0206 C.ar         1    LIG   0.0000
  14 C14          0.4738    -1.3158    -1.4513 C.ar         1    LIG   0.0000
  15 N15          0.4384    -1.5035    -0.0877 N.pl3        1    LIG   0.0000
  16 C16          0.6203    -0.6985     1.0000 C.2          1    LIG   0.0000
  17 S17          1.0000     1.0000     1.0000 S.3          1    LIG   0.0000
  18 C18          2.8100     1.0000     1.0000 C.3          1    LIG   0.0000
  19 C19          3.3167     0.5098     2.3468 C.2          1    LIG   0.0000
  20 N20          3.5746     1.2519     3.3931 N.2          1    LIG   0.0000
  21 O21          3.9754     0.5123     4.3374 O.2          1    LIG   0.0000
  22 C22          3.9904    -0.7326     3.9275 C.2          1    LIG   0.0000
  23 C23          4.3948    -1.8747     4.7244 C.ar         1    LIG   0.0000
  24 C24          4.3673    -3.1519     4.1736 C.ar         1    LIG   0.0000
  25 C25          4.7551    -4.2475     4.9375 C.ar         1    LIG   0.0000
  26 C26          5.1721    -4.0665     6.2524 C.ar         1    LIG   0.0000
  27 C27          5.2004    -2.7892     6.8036 C.ar         1    LIG   0.0000
  28 C28          4.8110    -1.6937     6.0404 C.ar         1    LIG   0.0000
  29 O29          4.8481    -0.4663     6.6019 O.3          1    LIG   0.0000
  30 N30          3.5793    -0.7805     2.6840 N.2          1    LIG   0.0000
  31 N31          0.4609    -1.4117     2.0882 N.2          1    LIG   0.0000
  32 N32          0.1860    -2.6473     1.7267 N.2          1    LIG   0.0000
  33 C33          0.1663    -2.7317     0.4135 C.2          1    LIG   0.0000
  34 C34         -1.6598    -5.4379     0.3954 C.ar         1    LIG   0.0000
  35 C35         -2.8126    -4.4880     0.1133 C.3          1    LIG   0.0000
  36 C36         -1.9427    -6.6904     0.9304 C.ar         1    LIG   0.0000
  37 H           -0.3470    -9.4429     1.9058 H            1    LIG   0.0000
  38 H           -1.6592    -8.8292     2.6596 H            1    LIG   0.0000
  39 H           -1.7958    -9.4425     1.1523 H            1    LIG   0.0000
  40 H            1.1664    -7.8468     1.1190 H            1    LIG   0.0000
  41 H            1.6393    -5.6874     0.1979 H            1    LIG   0.0000
  42 H            0.1123    -2.9568    -4.3064 H            1    LIG   0.0000
  43 H            0.5746    -0.8099    -5.2440 H            1    LIG   0.0000
  44 H            0.9799     1.0442    -3.7635 H            1    LIG   0.0000
  45 H            0.9121     0.7052    -1.4144 H            1    LIG   0.0000
  46 H            3.1433     1.9285     0.8363 H            1    LIG   0.0000
  47 H            3.1433     0.3940     0.2778 H            1    LIG   0.0000
  48 H            4.0687    -3.2823     3.2282 H            1    LIG   0.0000
  49 H            4.7342    -5.1656     4.5416 H            1    LIG   0.0000
  50 H            5.4515    -4.8543     6.8014 H            1    LIG   0.0000
  51 H            5.5007    -2.6589     7.7485 H            1    LIG   0.0000
  52 H            5.1505    -0.3587     7.5491 H            1    LIG   0.0000
  53 H           -3.6749    -4.9249     0.3695 H            1    LIG   0.0000
  54 H           -2.6923    -3.6503     0.6460 H            1    LIG   0.0000
  55 H           -2.8292    -4.2639    -0.8611 H            1    LIG   0.0000
  56 H           -2.8870    -6.9566     1.1242 H            1    LIG   0.0000
@<TRIPOS>BOND
   1        1        2 1
   2        2        3 ar
   3        3        4 ar
   4        4        5 ar
   5        5        6 1
   6        6        7 1
   7        7        8 2
   8        7        9 1
   9        9       10 ar
  10       10       11 ar
  11       11       12 ar
  12       12       13 ar
  13       13       14 ar
  14       14        9 ar
  15       14       15 1
  16       15       16 1
  17       16       17 1
  18       17       18 1
  19       18       19 1
  20       19       20 2
  21       20       21 1
  22       21       22 1
  23       22       23 1
  24       23       24 ar
  25       24       25 ar
  26       25       26 ar
  27       26       27 ar
  28       27       28 ar
  29       28       23 ar
  30       28       29 1
  31       22       30 2
  32       30       19 1
  33       16       31 2
  34       31       32 1
  35       32       33 2
  36       33        6 1
  37       33       15 1
  38        5       34 ar
  39       34       35 1
  40       34       36 ar
  41       36        2 ar
  42        1       37 1
  43        1       38 1
  44        1       39 1
  45        3       40 1
  46        4       41 1
  47       10       42 1
  48       11       43 1
  49       12       44 1
  50       13       45 1
  51       18       46 1
  52       18       47 1
  53       24       48 1
  54       25       49 1
  55       26       50 1
  56       27       51 1
  57       29       52 1
  58       35       53 1
  59       35       54 1
  60       35       55 1
  61       36       56 1

@<TRIPOS>MOLECULE

  56   61
SMALL
USER_CHARGES
@<TRIPOS>ATOM
   1 C1          -1.2402    -8.9290     0.2224 C.3          1    LIG   0.0000
   2 C2          -0.9326    -7.5599     0.8073 C.ar         1    LIG   0.0000
   3 C3          -1.9712    -6.6733     1.0732 C.ar         1    LIG   0.0000
   4 C4          -1.6845    -5.4213     1.6086 C.ar         1    LIG   0.0000
   5 C5          -0.3665    -5.0635     1.8746 C.ar         1    LIG   0.0000
   6 N6          -0.0782    -3.8037     2.4129 N.pl3        1    LIG   0.0000
   7 C7          -0.0453    -3.6617     3.7758 C.2          1    LIG   0.0000
   8 O8          -0.2692    -4.6374     4.4794 O.2          1    LIG   0.0000
   9 C9           0.2480    -2.3812     4.3211 C.ar         1    LIG   0.0000
  10 C10          0.2959    -2.1844     5.6983 C.ar         1    LIG   0.0000
  11 C11          0.5835    -0.9418     6.2521 C.ar         1    LIG   0.0000
  12 C12          0.8274     0.1256     5.3952 C.ar         1    LIG   0.0000
  13 C13          0.7769    -0.0795     4.0206 C.ar         1    LIG   0.0000
  14 C14          0.4901    -1.3195     3.4513 C.ar         1    LIG   0.0000
  15 N15          0.4422    -1.5044     2.0877 N.pl3        1    LIG   0.0000
  16 C16          0.6203    -0.6985     1.0000 C.2          1    LIG   0.0000
  17 S17          1.0000     1.0000     1.0000 S.3          1    LIG   0.0000
  18 C18          2.8100     1.0000     1.0000 C.3          1    LIG   0.0000
  19 C19          3.3167     0.5098     2.3468 C.2          1    LIG   0.0000
  20 N20          3.5746     1.2519     3.3931 N.2          1    LIG   0.0000
  21 O21          3.9754     0.5123     4.3374 O.2          1    LIG   0.0000
  22 C22          3.9904    -0.7326     3.9275 C.2          1    LIG   0.0000
  23 C23          4.3948    -1.8747     4.7244 C.ar         1    LIG   0.0000
  24 C24          4.3673    -3.1519     4.1736 C.ar         1    LIG   0.0000
  25 C25          4.7551    -4.2475     4.9375 C.ar         1    LIG   0.0000
  26 C26          5.1721    -4.0665     6.2524 C.ar         1    LIG   0.0000
  27 C27          5.2004    -2.7892     6.8036 C.ar         1    LIG   0.0000
  28 C28          4.8110    -1.6937     6.0404 C.ar         1    LIG   0.0000
  29 O29          4.8481    -0.4663     6.6019 O.3          1    LIG   0.0000
  30 N30          3.5793    -0.7805     2.6840 N.2          1    LIG   0.0000
  31 N31          0.4609    -1.4117    -0.0882 N.2          1    LIG   0.0000
  32 N32          0.1836    -2.6468     0.2733 N.2          1    LIG   0.0000
  33 C33          0.1655    -2.7315     1.5865 C.2          1    LIG   0.0000
  34 C34          0.6655    -5.9577     1.6046 C.ar         1    LIG   0.0000
  35 C35          2.1131    -5.5890     1.8867 C.3          1    LIG   0.0000
  36 C36          0.3882    -7.2115     1.0696 C.ar         1    LIG   0.0000
  37 H           -2.2275    -9.0226     0.0942 H            1    LIG   0.0000
  38 H           -0.7789    -9.0259    -0.6596 H            1    LIG   0.0000
  39 H           -0.9164    -9.6390     0.8477 H            1    LIG   0.0000
  40 H           -2.9173    -6.9339     0.8810 H            1    LIG   0.0000
  41 H           -2.4258    -4.7787     1.8021 H            1    LIG   0.0000
  42 H            0.1185    -2.9582     6.3064 H            1    LIG   0.0000
  43 H            0.6143    -0.8187     7.2440 H            1    LIG   0.0000
  44 H            1.0370     1.0314     5.7635 H            1    LIG   0.0000
  45 H            0.9540     0.6959     3.4144 H            1    LIG   0.0000
  46 H            3.1433     1.9285     0.8363 H            1    LIG   0.0000
  47 H            3.1433     0.3940     0.2778 H            1    LIG   0.0000
  48 H            4.0687    -3.2823     3.2282 H            1    LIG   0.0000
  49 H            4.7342    -5.1656     4.5416 H            1    LIG   0.0000
  50 H            5.4515    -4.8543     6.8014 H            1    LIG   0.0000
  51 H            5.5007    -2.6589     7.7485 H            1    LIG   0.0000
  52 H            5.1505    -0.3587     7.5491 H            1    LIG   0.0000
  53 H            2.7073    -6.3515     1.6305 H            1    LIG   0.0000
  54 H            2.3609    -4.7798     1.3540 H            1    LIG   0.0000
  55 H            2.2235    -5.3933     2.8611 H            1    LIG   0.0000
  56 H            1.1293    -7.8543     0.8758 H            1    LIG   0.0000
@<TRIPOS>BOND
   1        1        2 1
   2        2        3 ar
   3        3        4 ar
   4        4        5 ar
   5        5        6 1
   6        6        7 1
   7        7        8 2
   8        7        9 1
   9        9       10 ar
  10       10       11 ar
  11       11       12 ar
  12       12       13 ar
  13       13       14 ar
  14       14        9 ar
  15       14       15 1
  16       15       16 1
  17       16       17 1
  18       17       18 1
  19       18       19 1
  20       19       20 2
  21       20       21 1
  22       21       22 1
  23       22       23 1
  24       23       24 ar
  25       24       25 ar
  26       25       26 ar
  27       26       27 ar
  28       27       28 ar
  29       28       23 ar
  30       28       29 1
  31       22       30 2
  32       30       19 1
  33       16       31 2
  34       31       32 1
  35       32       33 2
  36       33        6 1
  37       33       15 1
  38        5       34 ar
  39       34       35 1
  40       34       36 ar
  41       36        2 ar
  42        1       37 1
  43        1       38 1
  44        1       39 1
  45        3       40 1
  46        4       41 1
  47       10       42 1
  48       11       43 1
  49       12       44 1
  50       13       45 1
  51       18       46 1
  52       18       47 1
  53       24       48 1
  54       25       49 1
  55       26       50 1
  56       27       51 1
  57       29       52 1
  58       35       53 1
  59       35       54 1
  60       35       55 1
  61       36       56 1

@<TRIPOS>MOLECULE

  56   61
SMALL
USER_CHARGES
@<TRIPOS>ATOM
   1 C1          -0.4615    -9.1030     0.9797 C.3          1    LIG   0.0000
   2 C2          -0.7263    -7.6061     0.9812 C.ar         1    LIG   0.0000
   3 C3          -0.8464    -6.9247    -0.2258 C.ar         1    LIG   0.0000
   4 C4          -1.0887    -5.5545    -0.2191 C.ar         1    LIG   0.0000
   5 C5          -1.2094    -4.8751     0.9891 C.ar         1    LIG   0.0000
   6 N6          -1.4528    -3.4964     0.9956 N.pl3        1    LIG   0.0000
   7 C7          -2.7511    -3.0568     0.9968 C.2          1    LIG   0.0000
   8 O8          -3.6561    -3.8803     0.9911 O.2          1    LIG   0.0000
   9 C9          -2.9968    -1.6559     1.0037 C.ar         1    LIG   0.0000
  10 C10         -4.2966    -1.1578     1.0075 C.ar         1    LIG   0.0000
  11 C11         -4.5588     0.2076     1.0172 C.ar         1    LIG   0.0000
  12 C12         -3.4837     1.0893     1.0223 C.ar         1    LIG   0.0000
  13 C13         -2.1883     0.5834     1.0178 C.ar         1    LIG   0.0000
  14 C14         -1.9103    -0.7829     1.0083 C.ar         1    LIG   0.0000
  15 N15         -0.6212    -1.2667     1.0020 N.pl3        1    LIG   0.0000
  16 C16          0.6203    -0.6985     1.0000 C.2          1    LIG   0.0000
  17 S17          1.0000     1.0000     1.0000 S.3          1    LIG   0.0000
  18 C18          2.8100     1.0000     1.0000 C.3          1    LIG   0.0000
  19 C19          3.3167     0.5098     2.3468 C.2          1    LIG   0.0000
  20 N20          3.5746    -0.7313     2.6713 N.2          1    LIG   0.0000
  21 O21          3.9796    -0.7712     3.8687 O.2          1    LIG   0.0000
  22 C22          3.9934     0.4459     4.3553 C.2          1    LIG   0.0000
  23 C23          4.3951     0.8082     5.7008 C.ar         1    LIG   0.0000
  24 C24          4.3657     2.1404     6.1005 C.ar         1    LIG   0.0000
  25 C25          4.7509     2.4883     7.3908 C.ar         1    LIG   0.0000
  26 C26          5.1642     1.5040     8.2829 C.ar         1    LIG   0.0000
  27 C27          5.1932     0.1713     7.8838 C.ar         1    LIG   0.0000
  28 C28          4.8097    -0.1766     6.5930 C.ar         1    LIG   0.0000
  29 O29          4.8487    -1.4776     6.2337 O.3          1    LIG   0.0000
  30 N30          3.5890     1.2827     3.4313 N.2          1    LIG   0.0000
  31 N31          1.5229    -1.6490     1.0000 N.2          1    LIG   0.0000
  32 N32          0.8940    -2.8056     0.9988 N.2          1    LIG   0.0000
  33 C33         -0.4065    -2.6036     0.9996 C.2          1    LIG   0.0000
  34 C34         -1.0872    -5.5659     2.1913 C.ar         1    LIG   0.0000
  35 C35         -1.2151    -4.8451     3.5237 C.3          1    LIG   0.0000
  36 C36         -0.8451    -6.9358     2.1942 C.ar         1    LIG   0.0000
  37 H           -0.4033    -9.4303     0.0366 H            1    LIG   0.0000
  38 H            0.4005    -9.2896     1.4510 H            1    LIG   0.0000
  39 H           -1.2075    -9.5740     1.4505 H            1    LIG   0.0000
  40 H           -0.7593    -7.4163    -1.0922 H            1    LIG   0.0000
  41 H           -1.1761    -5.0581    -1.0827 H            1    LIG   0.0000
  42 H           -5.0632    -1.7999     1.0032 H            1    LIG   0.0000
  43 H           -5.4992     0.5478     1.0203 H            1    LIG   0.0000
  44 H           -3.6404     2.0769     1.0292 H            1    LIG   0.0000
  45 H           -1.4232     1.2272     1.0215 H            1    LIG   0.0000
  46 H            3.1433     1.9285     0.8363 H            1    LIG   0.0000
  47 H            3.1433     0.3940     0.2778 H            1    LIG   0.0000
  48 H            4.0676     2.8480     5.4598 H            1    LIG   0.0000
  49 H            4.7306     3.4462     7.6774 H            1    LIG   0.0000
  50 H            5.4405     1.7543     9.2108 H            1    LIG   0.0000
  51 H            5.4897    -0.5363     8.5252 H            1    LIG   0.0000
  52 H            5.1498    -2.1689     6.8904 H            1    LIG   0.0000
  53 H           -1.0991    -5.5007     4.2698 H            1    LIG   0.0000
  54 H           -0.5112    -4.1378     3.5889 H            1    LIG   0.0000
  55 H           -2.1191    -4.4226     3.5887 H            1    LIG   0.0000
  56 H           -0.7577    -7.4325     3.0577 H            1    LIG   0.0000
@<TRIPOS>BOND
   1        1        2 1
   2        2        3 ar
   3        3        4 ar
   4        4        5 ar
   5        5        6 1
   6        6        7 1
   7        7        8 2
   8        7        9 1
   9        9       10 ar
  10       10       11 ar
  11       11       12 ar
  12       12       13 ar
  13       13       14 ar
  14       14        9 ar
  15       14       15 1
  16       15       16 1
  17       16       17 1
  18       17       18 1
  19       18       19 1
  20       19       20 2
  21       20       21 1
  22       21       22 1
  23       22       23 1
  24       23       24 ar
  25       24       25 ar
  26       25       26 ar
  27       26       27 ar
  28       27       28 ar
  29       28       23 ar
  30       28       29 1
  31       22       30 2
  32       30       19 1
  33       16       31 2
  34       31       32 1
  35       32       33 2
  36       33        6 1
  37       33       15 1
  38        5       34 ar
  39       34       35 1
  40       34       36 ar
  41       36        2 ar
  42        1       37 1
  43        1       38 1
  44        1       39 1
  45        3       40 1
  46        4       41 1
  47       10       42 1
  48       11       43 1
  49       12       44 1
  50       13       45 1
  51       18       46 1
  52       18       47 1
  53       24       48 1
  54       25       49 1
  55       26       50 1
  56       27       51 1
  57       29       52 1
  58       35       53 1
  59       35       54 1
  60       35       55 1
  61       36       56 1

@<TRIPOS>MOLECULE

  56   61
SMALL
USER_CHARGES
@<TRIPOS>ATOM
   1 C1          -1.2402    -8.9290     0.2224 C.3          1    LIG   0.0000
   2 C2          -0.9326    -7.5599     0.8073 C.ar         1    LIG   0.0000
   3 C3          -1.9712    -6.6733     1.0732 C.ar         1    LIG   0.0000
   4 C4          -1.6845    -5.4213     1.6086 C.ar         1    LIG   0.0000
   5 C5          -0.3665    -5.0635     1.8746 C.ar         1    LIG   0.0000
   6 N6          -0.0782    -3.8037     2.4129 N.pl3        1    LIG   0.0000
   7 C7          -0.0453    -3.6617     3.7758 C.2          1    LIG   0.0000
   8 O8          -0.2692    -4.6374     4.4794 O.2          1    LIG   0.0000
   9 C9           0.2480    -2.3812     4.3211 C.ar         1    LIG   0.0000
  10 C10          0.2959    -2.1844     5.6983 C.ar         1    LIG   0.0000
  11 C11          0.5835    -0.9418     6.2521 C.ar         1    LIG   0.0000
  12 C12          0.8274     0.1256     5.3952 C.ar         1    LIG   0.0000
  13 C13          0.7769    -0.0795     4.0206 C.ar         1    LIG   0.0000
  14 C14          0.4901    -1.3195     3.4513 C.ar         1    LIG   0.0000
  15 N15          0.4422    -1.5044     2.0877 N.pl3        1    LIG   0.0000
  16 C16          0.6203    -0.6985     1.0000 C.2          1    LIG   0.0000
  17 S17          1.0000     1.0000     1.0000 S.3          1    LIG   0.0000
  18 C18          2.8100     1.0000     1.0000 C.3          1    LIG   0.0000
  19 C19          3.3167     0.5098     2.3468 C.2          1    LIG   0.0000
  20 N20          3.5746    -0.7313     2.6713 N.2          1    LIG   0.0000
  21 O21          3.9796    -0.7712     3.8687 O.2          1    LIG   0.0000
  22 C22          3.9934     0.4459     4.3553 C.2          1    LIG   0.0000
  23 C23          4.3951     0.8082     5.7008 C.ar         1    LIG   0.0000
  24 C24          4.3657     2.1404     6.1005 C.ar         1    LIG   0.0000
  25 C25          4.7509     2.4883     7.3908 C.ar         1    LIG   0.0000
  26 C26          5.1642     1.5040     8.2829 C.ar         1    LIG   0.0000
  27 C27          5.1932     0.1713     7.8838 C.ar         1    LIG   0.0000
  28 C28          4.8097    -0.1766     6.5930 C.ar         1    LIG   0.0000
  29 O29          4.8487    -1.4776     6.2337 O.3          1    LIG   0.0000
  30 N30          3.5890     1.2827     3.4313 N.2          1    LIG   0.0000
  31 N31          0.4609    -1.4117    -0.0882 N.2          1    LIG   0.0000
  32 N32          0.1836    -2.6468     0.2733 N.2          1    LIG   0.0000
  33 C33          0.1655    -2.7315     1.5865 C.2          1    LIG   0.0000
  34 C34          0.6655    -5.9577     1.6046 C.ar         1    LIG   0.0000
  35 C35          2.1131    -5.5890     1.8867 C.3          1    LIG   0.0000
  36 C36          0.3882    -7.2115     1.0696 C.ar         1    LIG   0.0000
  37 H           -2.2275    -9.0226     0.0942 H            1    LIG   0.0000
  38 H           -0.7789    -9.0259    -0.6596 H            1    LIG   0.0000
  39 H           -0.9164    -9.6390     0.8477 H            1    LIG   0.0000
  40 H           -2.9173    -6.9339     0.8810 H            1    LIG   0.0000
  41 H           -2.4258    -4.7787     1.8021 H            1    LIG   0.0000
  42 H            0.1185    -2.9582     6.3064 H            1    LIG   0.0000
  43 H            0.6143    -0.8187     7.2440 H            1    LIG   0.0000
  44 H            1.0370     1.0314     5.7635 H            1    LIG   0.0000
  45 H            0.9540     0.6959     3.4144 H            1    LIG   0.0000
  46 H            3.1433     1.9285     0.8363 H            1    LIG   0.0000
  47 H            3.1433     0.3940     0.2778 H            1    LIG   0.0000
  48 H            4.0676     2.8480     5.4598 H            1    LIG   0.0000
  49 H            4.7306     3.4462     7.6774 H            1    LIG   0.0000
  50 H            5.4405     1.7543     9.2108 H            1    LIG   0.0000
  51 H            5.4897    -0.5363     8.5252 H            1    LIG   0.0000
  52 H            5.1498    -2.1689     6.8904 H            1    LIG   0.0000
  53 H            2.7073    -6.3515     1.6305 H            1    LIG   0.0000
  54 H            2.3609    -4.7798     1.3540 H            1    LIG   0.0000
  55 H            2.2235    -5.3933     2.8611 H            1    LIG   0.0000
  56 H            1.1293    -7.8543     0.8758 H            1    LIG   0.0000
@<TRIPOS>BOND
   1        1        2 1
   2        2        3 ar
   3        3        4 ar
   4        4        5 ar
   5        5        6 1
   6        6        7 1
   7        7        8 2
   8        7        9 1
   9        9       10 ar
  10       10       11 ar
  11       11       12 ar
  12       12       13 ar
  13       13       14 ar
  14       14        9 ar
  15       14       15 1
  16       15       16 1
  17       16       17 1
  18       17       18 1
  19       18       19 1
  20       19       20 2
  21       20       21 1
  22       21       22 1
  23       22       23 1
  24       23       24 ar
  25       24       25 ar
  26       25       26 ar
  27       26       27 ar
  28       27       28 ar
  29       28       23 ar
  30       28       29 1
  31       22       30 2
  32       30       19 1
  33       16       31 2
  34       31       32 1
  35       32       33 2
  36       33        6 1
  37       33       15 1
  38        5       34 ar
  39       34       35 1
  40       34       36 ar
  41       36        2 ar
  42        1       37 1
  43        1       38 1
  44        1       39 1
  45        3       40 1
  46        4       41 1
  47       10       42 1
  48       11       43 1
  49       12       44 1
  50       13       45 1
  51       18       46 1
  52       18       47 1
  53       24       48 1
  54       25       49 1
  55       26       50 1
  56       27       51 1
  57       29       52 1
  58       35       53 1
  59       35       54 1
  60       35       55 1
  61       36       56 1

@<TRIPOS>MOLECULE

  56   61
SMALL
USER_CHARGES
@<TRIPOS>ATOM
   1 C1          -0.4641    -9.1034     0.9583 C.3          1    LIG   0.0000
   2 C2          -0.7280    -7.6063     0.9710 C.ar         1    LIG   0.0000
   3 C3          -0.8465    -6.9362     2.1844 C.ar         1    LIG   0.0000
   4 C4          -1.0881    -5.5659     2.1908 C.ar         1    LIG   0.0000
   5 C5          -1.2094    -4.8751     0.9891 C.ar         1    LIG   0.0000
   6 N6          -1.4528    -3.4964     0.9956 N.pl3        1    LIG   0.0000
   7 C7          -2.7511    -3.0568     0.9968 C.2          1    LIG   0.0000
   8 O8          -3.6561    -3.8803     0.9911 O.2          1    LIG   0.0000
   9 C9          -2.9968    -1.6559     1.0037 C.ar         1    LIG   0.0000
  10 C10         -4.2966    -1.1578     1.0075 C.ar         1    LIG   0.0000
  11 C11         -4.5588     0.2076     1.0172 C.ar         1    LIG   0.0000
  12 C12         -3.4837     1.0893     1.0223 C.ar         1    LIG   0.0000
  13 C13         -2.1883     0.5834     1.0178 C.ar         1    LIG   0.0000
  14 C14         -1.9103    -0.7829     1.0083 C.ar         1    LIG   0.0000
  15 N15         -0.6212    -1.2667     1.0020 N.pl3        1    LIG   0.0000
  16 C16          0.6203    -0.6985     1.0000 C.2          1    LIG   0.0000
  17 S17          1.0000     1.0000     1.0000 S.3          1    LIG   0.0000
  18 C18          2.8100     1.0000     1.0000 C.3          1    LIG   0.0000
  19 C19          3.3167     0.5098     2.3468 C.2          1    LIG   0.0000
  20 N20          3.5746    -0.7313     2.6713 N.2          1    LIG   0.0000
  21 O21          3.9796    -0.7712     3.8687 O.2          1    LIG   0.0000
  22 C22          3.9934     0.4459     4.3553 C.2          1    LIG   0.0000
  23 C23          4.3951     0.8082     5.7008 C.ar         1    LIG   0.0000
  24 C24          4.8098    -0.1765     6.5918 C.ar         1    LIG   0.0000
  25 C25          5.1952     0.1706     7.8823 C.ar         1    LIG   0.0000
  26 C26          5.1676     1.5028     8.2822 C.ar         1    LIG   0.0000
  27 C27          4.7535     2.4881     7.3912 C.ar         1    LIG   0.0000
  28 C28          4.3665     2.1411     6.1013 C.ar         1    LIG   0.0000
  29 O29          3.9687     3.1184     5.2588 O.3          1    LIG   0.0000
  30 N30          3.5890     1.2827     3.4313 N.2          1    LIG   0.0000
  31 N31          1.5229    -1.6490     1.0000 N.2          1    LIG   0.0000
  32 N32          0.8940    -2.8056     0.9988 N.2          1    LIG   0.0000
  33 C33         -0.4065    -2.6036     0.9996 C.2          1    LIG   0.0000
  34 C34         -1.0895    -5.5549    -0.2196 C.ar         1    LIG   0.0000
  35 C35         -1.2184    -4.8216    -1.5451 C.3          1    LIG   0.0000
  36 C36         -0.8478    -6.9247    -0.2356 C.ar         1    LIG   0.0000
  37 H           -0.4051    -9.4395     1.8983 H            1    LIG   0.0000
  38 H           -1.2108    -9.5695     0.4839 H            1    LIG   0.0000
  39 H            0.3973    -9.2860     0.4843 H            1    LIG   0.0000
  40 H           -0.7586    -7.4359     3.0462 H            1    LIG   0.0000
  41 H           -1.1746    -5.0775     3.0591 H            1    LIG   0.0000
  42 H           -5.0632    -1.7999     1.0032 H            1    LIG   0.0000
  43 H           -5.4992     0.5478     1.0203 H            1    LIG   0.0000
  44 H           -3.6404     2.0769     1.0292 H            1    LIG   0.0000
  45 H           -1.4232     1.2272     1.0215 H            1    LIG   0.0000
  46 H            3.1433     1.9285     0.8363 H            1    LIG   0.0000
  47 H            3.1433     0.3940     0.2778 H            1    LIG   0.0000
  48 H            4.8308    -1.1340     6.3043 H            1    LIG   0.0000
  49 H            5.4922    -0.5376     8.5228 H            1    LIG   0.0000
  50 H            5.4453     1.7523     9.2099 H            1    LIG   0.0000
  51 H            4.7341     3.4458     7.6784 H            1    LIG   0.0000
  52 H            3.9556     4.0696     5.5670 H            1    LIG   0.0000
  53 H           -1.1041    -5.4703    -2.2974 H            1    LIG   0.0000
  54 H           -2.1221    -4.3976    -1.6050 H            1    LIG   0.0000
  55 H           -0.5139    -4.1144    -1.6047 H            1    LIG   0.0000
  56 H           -0.7613    -7.4134    -1.1037 H            1    LIG   0.0000
@<TRIPOS>BOND
   1        1        2 1
   2        2        3 ar
   3        3        4 ar
   4        4        5 ar
   5        5        6 1
   6        6        7 1
   7        7        8 2
   8        7        9 1
   9        9       10 ar
  10       10       11 ar
  11       11       12 ar
  12       12       13 ar
  13       13       14 ar
  14       14        9 ar
  15       14       15 1
  16       15       16 1
  17       16       17 1
  18       17       18 1
  19       18       19 1
  20       19       20 2
  21       20       21 1
  22       21       22 1
  23       22       23 1
  24       23       24 ar
  25       24       25 ar
  26       25       26 ar
  27       26       27 ar
  28       27       28 ar
  29       28       23 ar
  30       28       29 1
  31       22       30 2
  32       30       19 1
  33       16       31 2
  34       31       32 1
  35       32       33 2
  36       33        6 1
  37       33       15 1
  38        5       34 ar
  39       34       35 1
  40       34       36 ar
  41       36        2 ar
  42        1       37 1
  43        1       38 1
  44        1       39 1
  45        3       40 1
  46        4       41 1
  47       10       42 1
  48       11       43 1
  49       12       44 1
  50       13       45 1
  51       18       46 1
  52       18       47 1
  53       24       48 1
  54       25       49 1
  55       26       50 1
  56       27       51 1
  57       29       52 1
  58       35       53 1
  59       35       54 1
  60       35       55 1
  61       36       56 1

@<TRIPOS>MOLECULE

  56   61
SMALL
USER_CHARGES
@<TRIPOS>ATOM
   1 C1          -1.2613    -8.9252     0.2248 C.3          1    LIG   0.0000
   2 C2          -0.9427    -7.5583     0.8090 C.ar         1    LIG   0.0000
   3 C3           0.3785    -7.2100     1.0708 C.ar         1    LIG   0.0000
   4 C4           0.6649    -5.9577     1.6055 C.ar         1    LIG   0.0000
   5 C5          -0.3665    -5.0635     1.8746 C.ar         1    LIG   0.0000
   6 N6          -0.0782    -3.8037     2.4129 N.pl3        1    LIG   0.0000
   7 C7          -0.0453    -3.6617     3.7758 C.2          1    LIG   0.0000
   8 O8          -0.2692    -4.6374     4.4794 O.2          1    LIG   0.0000
   9 C9           0.2480    -2.3812     4.3211 C.ar         1    LIG   0.0000
  10 C10          0.2959    -2.1844     5.6983 C.ar         1    LIG   0.0000
  11 C11          0.5835    -0.9418     6.2521 C.ar         1    LIG   0.0000
  12 C12          0.8274     0.1256     5.3952 C.ar         1    LIG   0.0000
  13 C13          0.7769    -0.0795     4.0206 C.ar         1    LIG   0.0000
  14 C14          0.4901    -1.3195     3.4513 C.ar         1    LIG   0.0000
  15 N15          0.4422    -1.5044     2.0877 N.pl3        1    LIG   0.0000
  16 C16          0.6203    -0.6985     1.0000 C.2          1    LIG   0.0000
  17 S17          1.0000     1.0000     1.0000 S.3          1    LIG   0.0000
  18 C18          2.8100     1.0000     1.0000 C.3          1    LIG   0.0000
  19 C19          3.3167     0.5098     2.3468 C.2          1    LIG   0.0000
  20 N20          3.5746    -0.7313     2.6713 N.2          1    LIG   0.0000
  21 O21          3.9796    -0.7712     3.8687 O.2          1    LIG   0.0000
  22 C22          3.9934     0.4459     4.3553 C.2          1    LIG   0.0000
  23 C23          4.3951     0.8082     5.7008 C.ar         1    LIG   0.0000
  24 C24          4.8098    -0.1765     6.5918 C.ar         1    LIG   0.0000
  25 C25          5.1952     0.1706     7.8823 C.ar         1    LIG   0.0000
  26 C26          5.1676     1.5028     8.2822 C.ar         1    LIG   0.0000
  27 C27          4.7535     2.4881     7.3912 C.ar         1    LIG   0.0000
  28 C28          4.3665     2.1411     6.1013 C.ar         1    LIG   0.0000
  29 O29          3.9687     3.1184     5.2588 O.3          1    LIG   0.0000
  30 N30          3.5890     1.2827     3.4313 N.2          1    LIG   0.0000
  31 N31          0.4609    -1.4117    -0.0882 N.2          1    LIG   0.0000
  32 N32          0.1836    -2.6468     0.2733 N.2          1    LIG   0.0000
  33 C33          0.1655    -2.7315     1.5865 C.2          1    LIG   0.0000
  34 C34         -1.6852    -5.4217     1.6093 C.ar         1    LIG   0.0000
  35 C35         -2.8287    -4.4616     1.8951 C.3          1    LIG   0.0000
  36 C36         -1.9808    -6.6714     1.0746 C.ar         1    LIG   0.0000
  37 H           -0.4127    -9.4378     0.0939 H            1    LIG   0.0000
  38 H           -1.8590    -9.4246     0.8519 H            1    LIG   0.0000
  39 H           -1.7217    -8.8123    -0.6557 H            1    LIG   0.0000
  40 H            1.1173    -7.8552     0.8760 H            1    LIG   0.0000
  41 H            1.6122    -5.7004     1.7965 H            1    LIG   0.0000
  42 H            0.1185    -2.9582     6.3064 H            1    LIG   0.0000
  43 H            0.6143    -0.8187     7.2440 H            1    LIG   0.0000
  44 H            1.0370     1.0314     5.7635 H            1    LIG   0.0000
  45 H            0.9540     0.6959     3.4144 H            1    LIG   0.0000
  46 H            3.1433     1.9285     0.8363 H            1    LIG   0.0000
  47 H            3.1433     0.3940     0.2778 H            1    LIG   0.0000
  48 H            4.8308    -1.1340     6.3043 H            1    LIG   0.0000
  49 H            5.4922    -0.5376     8.5228 H            1    LIG   0.0000
  50 H            5.4453     1.7523     9.2099 H            1    LIG   0.0000
  51 H            4.7341     3.4458     7.6784 H            1    LIG   0.0000
  52 H            3.9556     4.0696     5.5670 H            1    LIG   0.0000
  53 H           -3.6956    -4.8910     1.6420 H            1    LIG   0.0000
  54 H           -2.8399    -4.2371     2.8695 H            1    LIG   0.0000
  55 H           -2.7028    -3.6251     1.3617 H            1    LIG   0.0000
  56 H           -2.9280    -6.9291     0.8836 H            1    LIG   0.0000
@<TRIPOS>BOND
   1        1        2 1
   2        2        3 ar
   3        3        4 ar
   4        4        5 ar
   5        5        6 1
   6        6        7 1
   7        7        8 2
   8        7        9 1
   9        9       10 ar
  10       10       11 ar
  11       11       12 ar
  12       12       13 ar
  13       13       14 ar
  14       14        9 ar
  15       14       15 1
  16       15       16 1
  17       16       17 1
  18       17       18 1
  19       18       19 1
  20       19       20 2
  21       20       21 1
  22       21       22 1
  23       22       23 1
  24       23       24 ar
  25       24       25 ar
  26       25       26 ar
  27       26       27 ar
  28       27       28 ar
  29       28       23 ar
  30       28       29 1
  31       22       30 2
  32       30       19 1
  33       16       31 2
  34       31       32 1
  35       32       33 2
  36       33        6 1
  37       33       15 1
  38        5       34 ar
  39       34       35 1
  40       34       36 ar
  41       36        2 ar
  42        1       37 1
  43        1       38 1
  44        1       39 1
  45        3       40 1
  46        4       41 1
  47       10       42 1
  48       11       43 1
  49       12       44 1
  50       13       45 1
  51       18       46 1
  52       18       47 1
  53       24       48 1
  54       25       49 1
  55       26       50 1
  56       27       51 1
  57       29       52 1
  58       35       53 1
  59       35       54 1
  60       35       55 1
  61       36       56 1

@<TRIPOS>MOLECULE

  56   61
SMALL
USER_CHARGES
@<TRIPOS>ATOM
   1 C1          -0.4641    -9.1034     0.9583 C.3          1    LIG   0.0000
   2 C2          -0.7280    -7.6063     0.9710 C.ar         1    LIG   0.0000
   3 C3          -0.8465    -6.9362     2.1844 C.ar         1    LIG   0.0000
   4 C4          -1.0881    -5.5659     2.1908 C.ar         1    LIG   0.0000
   5 C5          -1.2094    -4.8751     0.9891 C.ar         1    LIG   0.0000
   6 N6          -1.4528    -3.4964     0.9956 N.pl3        1    LIG   0.0000
   7 C7          -2.7511    -3.0568     0.9968 C.2          1    LIG   0.0000
   8 O8          -3.6561    -3.8803     0.9911 O.2          1    LIG   0.0000
   9 C9          -2.9968    -1.6559     1.0037 C.ar         1    LIG   0.0000
  10 C10         -4.2966    -1.1578     1.0075 C.ar         1    LIG   0.0000
  11 C11         -4.5588     0.2076     1.0172 C.ar         1    LIG   0.0000
  12 C12         -3.4837     1.0893     1.0223 C.ar         1    LIG   0.0000
  13 C13         -2.1883     0.5834     1.0178 C.ar         1    LIG   0.0000
  14 C14         -1.9103    -0.7829     1.0083 C.ar         1    LIG   0.0000
  15 N15         -0.6212    -1.2667     1.0020 N.pl3        1    LIG   0.0000
  16 C16          0.6203    -0.6985     1.0000 C.2          1    LIG   0.0000
  17 S17          1.0000     1.0000     1.0000 S.3          1    LIG   0.0000
  18 C18          2.8100     1.0000     1.0000 C.3          1    LIG   0.0000
  19 C19          3.3167     0.5098    -0.3468 C.2          1    LIG   0.0000
  20 N20          3.5746    -0.7313    -0.6713 N.2          1    LIG   0.0000
  21 O21          3.9754    -0.7717    -1.8701 O.2          1    LIG   0.0000
  22 C22          3.9904     0.4455    -2.3563 C.2          1    LIG   0.0000
  23 C23          4.3948     0.8082    -3.7009 C.ar         1    LIG   0.0000
  24 C24          4.3673     2.1406    -4.0999 C.ar         1    LIG   0.0000
  25 C25          4.7551     2.4888    -5.3894 C.ar         1    LIG   0.0000
  26 C26          5.1721     1.5050    -6.2803 C.ar         1    LIG   0.0000
  27 C27          5.2004     0.1722    -5.8814 C.ar         1    LIG   0.0000
  28 C28          4.8110    -0.1764    -4.5926 C.ar         1    LIG   0.0000
  29 O29          4.8481    -1.4776    -4.2338 O.3          1    LIG   0.0000
  30 N30          3.5793     1.2815    -1.4345 N.2          1    LIG   0.0000
  31 N31          1.5229    -1.6490     1.0000 N.2          1    LIG   0.0000
  32 N32          0.8940    -2.8056     0.9988 N.2          1    LIG   0.0000
  33 C33         -0.4065    -2.6036     0.9996 C.2          1    LIG   0.0000
  34 C34         -1.0895    -5.5549    -0.2196 C.ar         1    LIG   0.0000
  35 C35         -1.2184    -4.8216    -1.5451 C.3          1    LIG   0.0000
  36 C36         -0.8478    -6.9247    -0.2356 C.ar         1    LIG   0.0000
  37 H           -0.4051    -9.4395     1.8983 H            1    LIG   0.0000
  38 H           -1.2108    -9.5695     0.4839 H            1    LIG   0.0000
  39 H            0.3973    -9.2860     0.4843 H            1    LIG   0.0000
  40 H           -0.7586    -7.4359     3.0462 H            1    LIG   0.0000
  41 H           -1.1746    -5.0775     3.0591 H            1    LIG   0.0000
  42 H           -5.0632    -1.7999     1.0032 H            1    LIG   0.0000
  43 H           -5.4992     0.5478     1.0203 H            1    LIG   0.0000
  44 H           -3.6404     2.0769     1.0292 H            1    LIG   0.0000
  45 H           -1.4232     1.2272     1.0215 H            1    LIG   0.0000
  46 H            3.1433     0.3940     1.7222 H            1    LIG   0.0000
  47 H            3.1433     1.9285     1.1637 H            1    LIG   0.0000
  48 H            4.0687     2.8481    -3.4595 H            1    LIG   0.0000
  49 H            4.7342     3.4466    -5.6762 H            1    LIG   0.0000
  50 H            5.4515     1.7556    -7.2072 H            1    LIG   0.0000
  51 H            5.5007    -0.5350    -6.5216 H            1    LIG   0.0000
  52 H            5.1505    -2.1688    -4.8902 H            1    LIG   0.0000
  53 H           -1.1041    -5.4703    -2.2974 H            1    LIG   0.0000
  54 H           -2.1221    -4.3976    -1.6050 H            1    LIG   0.0000
  55 H           -0.5139    -4.1144    -1.6047 H            1    LIG   0.0000
  56 H           -0.7613    -7.4134    -1.1037 H            1    LIG   0.0000
@<TRIPOS>BOND
   1        1        2 1
   2        2        3 ar
   3        3        4 ar
   4        4        5 ar
   5        5        6 1
   6        6        7 1
   7        7        8 2
   8        7        9 1
   9        9       10 ar
  10       10       11 ar
  11       11       12 ar
  12       12       13 ar
  13       13       14 ar
  14       14        9 ar
  15       14       15 1
  16       15       16 1
  17       16       17 1
  18       17       18 1
  19       18       19 1
  20       19       20 2
  21       20       21 1
  22       21       22 1
  23       22       23 1
  24       23       24 ar
  25       24       25 ar
  26       25       26 ar
  27       26       27 ar
  28       27       28 ar
  29       28       23 ar
  30       28       29 1
  31       22       30 2
  32       30       19 1
  33       16       31 2
  34       31       32 1
  35       32       33 2
  36       33        6 1
  37       33       15 1
  38        5       34 ar
  39       34       35 1
  40       34       36 ar
  41       36        2 ar
  42        1       37 1
  43        1       38 1
  44        1       39 1
  45        3       40 1
  46        4       41 1
  47       10       42 1
  48       11       43 1
  49       12       44 1
  50       13       45 1
  51       18       46 1
  52       18       47 1
  53       24       48 1
  54       25       49 1
  55       26       50 1
  56       27       51 1
  57       29       52 1
  58       35       53 1
  59       35       54 1
  60       35       55 1
  61       36       56 1

@<TRIPOS>MOLECULE

  56   61
SMALL
USER_CHARGES
@<TRIPOS>ATOM
   1 C1          -1.2006    -8.9378     1.7776 C.3          1    LIG   0.0000
   2 C2          -0.8959    -7.5681     1.1927 C.ar         1    LIG   0.0000
   3 C3           0.4213    -7.2081     0.9268 C.ar         1    LIG   0.0000
   4 C4           0.6950    -5.9532     0.3914 C.ar         1    LIG   0.0000
   5 C5          -0.3452    -5.0683     0.1254 C.ar         1    LIG   0.0000
   6 N6          -0.0697    -3.8056    -0.4129 N.pl3        1    LIG   0.0000
   7 C7          -0.0391    -3.6631    -1.7758 C.2          1    LIG   0.0000
   8 O8          -0.2519    -4.6413    -2.4794 O.2          1    LIG   0.0000
   9 C9           0.2408    -2.3796    -2.3211 C.ar         1    LIG   0.0000
  10 C10          0.2812    -2.1811    -3.6983 C.ar         1    LIG   0.0000
  11 C11          0.5500    -0.9343    -4.2521 C.ar         1    LIG   0.0000
  12 C12          0.7838     0.1354    -3.3952 C.ar         1    LIG   0.0000
  13 C13          0.7422    -0.0717    -2.0206 C.ar         1    LIG   0.0000
  14 C14          0.4738    -1.3158    -1.4513 C.ar         1    LIG   0.0000
  15 N15          0.4384    -1.5035    -0.0877 N.pl3        1    LIG   0.0000
  16 C16          0.6203    -0.6985     1.0000 C.2          1    LIG   0.0000
  17 S17          1.0000     1.0000     1.0000 S.3          1    LIG   0.0000
  18 C18          2.8100     1.0000     1.0000 C.3          1    LIG   0.0000
  19 C19          3.3167     0.5098    -0.3468 C.2          1    LIG   0.0000
  20 N20          3.5746    -0.7313    -0.6713 N.2          1    LIG   0.0000
  21 O21          3.9754    -0.7717    -1.8701 O.2          1    LIG   0.0000
  22 C22          3.9904     0.4455    -2.3563 C.2          1    LIG   0.0000
  23 C23          4.3948     0.8082    -3.7009 C.ar         1    LIG   0.0000
  24 C24          4.3673     2.1406    -4.0999 C.ar         1    LIG   0.0000
  25 C25          4.7551     2.4888    -5.3894 C.ar         1    LIG   0.0000
  26 C26          5.1721     1.5050    -6.2803 C.ar         1    LIG   0.0000
  27 C27          5.2004     0.1722    -5.8814 C.ar         1    LIG   0.0000
  28 C28          4.8110    -0.1764    -4.5926 C.ar         1    LIG   0.0000
  29 O29          4.8481    -1.4776    -4.2338 O.3          1    LIG   0.0000
  30 N30          3.5793     1.2815    -1.4345 N.2          1    LIG   0.0000
  31 N31          0.4609    -1.4117     2.0882 N.2          1    LIG   0.0000
  32 N32          0.1860    -2.6473     1.7267 N.2          1    LIG   0.0000
  33 C33          0.1663    -2.7317     0.4135 C.2          1    LIG   0.0000
  34 C34         -1.6598    -5.4379     0.3954 C.ar         1    LIG   0.0000
  35 C35         -2.8126    -4.4880     0.1133 C.3          1    LIG   0.0000
  36 C36         -1.9427    -6.6904     0.9304 C.ar         1    LIG   0.0000
  37 H           -0.3470    -9.4429     1.9058 H            1    LIG   0.0000
  38 H           -1.6592    -8.8292     2.6596 H            1    LIG   0.0000
  39 H           -1.7958    -9.4425     1.1523 H            1    LIG   0.0000
  40 H            1.1664    -7.8468     1.1190 H            1    LIG   0.0000
  41 H            1.6393    -5.6874     0.1979 H            1    LIG   0.0000
  42 H            0.1123    -2.9568    -4.3064 H            1    LIG   0.0000
  43 H            0.5746    -0.8099    -5.2440 H            1    LIG   0.0000
  44 H            0.9799     1.0442    -3.7635 H            1    LIG   0.0000
  45 H            0.9121     0.7052    -1.4144 H            1    LIG   0.0000
  46 H            3.1433     0.3940     1.7222 H            1    LIG   0.0000
  47 H            3.1433     1.9285     1.1637 H            1    LIG   0.0000
  48 H            4.0687     2.8481    -3.4595 H            1    LIG   0.0000
  49 H            4.7342     3.4466    -5.6762 H            1    LIG   0.0000
  50 H            5.4515     1.7556    -7.2072 H            1    LIG   0.0000
  51 H            5.5007    -0.5350    -6.5216 H            1    LIG   0.0000
  52 H            5.1505    -2.1688    -4.8902 H            1    LIG   0.0000
  53 H           -3.6749    -4.9249     0.3695 H            1    LIG   0.0000
  54 H           -2.6923    -3.6503     0.6460 H            1    LIG   0.0000
  55 H           -2.8292    -4.2639    -0.8611 H            1    LIG   0.0000
  56 H           -2.8870    -6.9566     1.1242 H            1    LIG   0.0000
@<TRIPOS>BOND
   1        1        2 1
   2        2        3 ar
   3        3        4 ar
   4        4        5 ar
   5        5        6 1
   6        6        7 1
   7        7        8 2
   8        7        9 1
   9        9       10 ar
  10       10       11 ar
  11       11       12 ar
  12       12       13 ar
  13       13       14 ar
  14       14        9 ar
  15       14       15 1
  16       15       16 1
  17       16       17 1
  18       17       18 1
  19       18       19 1
  20       19       20 2
  21       20       21 1
  22       21       22 1
  23       22       23 1
  24       23       24 ar
  25       24       25 ar
  26       25       26 ar
  27       26       27 ar
  28       27       28 ar
  29       28       23 ar
  30       28       29 1
  31       22       30 2
  32       30       19 1
  33       16       31 2
  34       31       32 1
  35       32       33 2
  36       33        6 1
  37       33       15 1
  38        5       34 ar
  39       34       35 1
  40       34       36 ar
  41       36        2 ar
  42        1       37 1
  43        1       38 1
  44        1       39 1
  45        3       40 1
  46        4       41 1
  47       10       42 1
  48       11       43 1
  49       12       44 1
  50       13       45 1
  51       18       46 1
  52       18       47 1
  53       24       48 1
  54       25       49 1
  55       26       50 1
  56       27       51 1
  57       29       52 1
  58       35       53 1
  59       35       54 1
  60       35       55 1
  61       36       56 1

@<TRIPOS>MOLECULE

  56   61
SMALL
USER_CHARGES
@<TRIPOS>ATOM
   1 C1          -0.4615    -9.1030     0.9797 C.3          1    LIG   0.0000
   2 C2          -0.7263    -7.6061     0.9812 C.ar         1    LIG   0.0000
   3 C3          -0.8464    -6.9247    -0.2258 C.ar         1    LIG   0.0000
   4 C4          -1.0887    -5.5545    -0.2191 C.ar         1    LIG   0.0000
   5 C5          -1.2094    -4.8751     0.9891 C.ar         1    LIG   0.0000
   6 N6          -1.4528    -3.4964     0.9956 N.pl3        1    LIG   0.0000
   7 C7          -2.7511    -3.0568     0.9968 C.2          1    LIG   0.0000
   8 O8          -3.6561    -3.8803     0.9911 O.2          1    LIG   0.0000
   9 C9          -2.9968    -1.6559     1.0037 C.ar         1    LIG   0.0000
  10 C10         -4.2966    -1.1578     1.0075 C.ar         1    LIG   0.0000
  11 C11         -4.5588     0.2076     1.0172 C.ar         1    LIG   0.0000
  12 C12         -3.4837     1.0893     1.0223 C.ar         1    LIG   0.0000
  13 C13         -2.1883     0.5834     1.0178 C.ar         1    LIG   0.0000
  14 C14         -1.9103    -0.7829     1.0083 C.ar         1    LIG   0.0000
  15 N15         -0.6212    -1.2667     1.0020 N.pl3        1    LIG   0.0000
  16 C16          0.6203    -0.6985     1.0000 C.2          1    LIG   0.0000
  17 S17          1.0000     1.0000     1.0000 S.3          1    LIG   0.0000
  18 C18          2.8100     1.0000     1.0000 C.3          1    LIG   0.0000
  19 C19          3.3167     0.5098    -0.3468 C.2          1    LIG   0.0000
  20 N20          3.5746    -0.7313    -0.6713 N.2          1    LIG   0.0000
  21 O21          3.9754    -0.7717    -1.8701 O.2          1    LIG   0.0000
  22 C22          3.9904     0.4455    -2.3563 C.2          1    LIG   0.0000
  23 C23          4.3948     0.8082    -3.7009 C.ar         1    LIG   0.0000
  24 C24          4.8102    -0.1764    -4.5917 C.ar         1    LIG   0.0000
  25 C25          5.1980     0.1709    -5.8813 C.ar         1    LIG   0.0000
  26 C26          5.1694     1.5031    -6.2816 C.ar         1    LIG   0.0000
  27 C27          4.7534     2.4881    -5.3913 C.ar         1    LIG   0.0000
  28 C28          4.3671     2.1412    -4.1010 C.ar         1    LIG   0.0000
  29 O29          3.9688     3.1184    -3.2587 O.3          1    LIG   0.0000
  30 N30          3.5793     1.2815    -1.4345 N.2          1    LIG   0.0000
  31 N31          1.5229    -1.6490     1.0000 N.2          1    LIG   0.0000
  32 N32          0.8940    -2.8056     0.9988 N.2          1    LIG   0.0000
  33 C33         -0.4065    -2.6036     0.9996 C.2          1    LIG   0.0000
  34 C34         -1.0872    -5.5659     2.1913 C.ar         1    LIG   0.0000
  35 C35         -1.2151    -4.8451     3.5237 C.3          1    LIG   0.0000
  36 C36         -0.8451    -6.9358     2.1942 C.ar         1    LIG   0.0000
  37 H           -0.4033    -9.4303     0.0366 H            1    LIG   0.0000
  38 H            0.4005    -9.2896     1.4510 H            1    LIG   0.0000
  39 H           -1.2075    -9.5740     1.4505 H            1    LIG   0.0000
  40 H           -0.7593    -7.4163    -1.0922 H            1    LIG   0.0000
  41 H           -1.1761    -5.0581    -1.0827 H            1    LIG   0.0000
  42 H           -5.0632    -1.7999     1.0032 H            1    LIG   0.0000
  43 H           -5.4992     0.5478     1.0203 H            1    LIG   0.0000
  44 H           -3.6404     2.0769     1.0292 H            1    LIG   0.0000
  45 H           -1.4232     1.2272     1.0215 H            1    LIG   0.0000
  46 H            3.1433     0.3940     1.7222 H            1    LIG   0.0000
  47 H            3.1433     1.9285     1.1637 H            1    LIG   0.0000
  48 H            4.8299    -1.1341    -4.3046 H            1    LIG   0.0000
  49 H            5.4976    -0.5369    -6.5210 H            1    LIG   0.0000
  50 H            5.4477     1.7526    -7.2091 H            1    LIG   0.0000
  51 H            4.7322     3.4456    -5.6791 H            1    LIG   0.0000
  52 H            3.9565     4.0697    -3.5667 H            1    LIG   0.0000
  53 H           -1.0991    -5.5007     4.2698 H            1    LIG   0.0000
  54 H           -0.5112    -4.1378     3.5889 H            1    LIG   0.0000
  55 H           -2.1191    -4.4226     3.5887 H            1    LIG   0.0000
  56 H           -0.7577    -7.4325     3.0577 H            1    LIG   0.0000
@<TRIPOS>BOND
   1        1        2 1
   2        2        3 ar
   3        3        4 ar
   4        4        5 ar
   5        5        6 1
   6        6        7 1
   7        7        8 2
   8        7        9 1
   9        9       10 ar
  10       10       11 ar
  11       11       12 ar
  12       12       13 ar
  13       13       14 ar
  14       14        9 ar
  15       14       15 1
  16       15       16 1
  17       16       17 1
  18       17       18 1
  19       18       19 1
  20       19       20 2
  21       20       21 1
  22       21       22 1
  23       22       23 1
  24       23       24 ar
  25       24       25 ar
  26       25       26 ar
  27       26       27 ar
  28       27       28 ar
  29       28       23 ar
  30       28       29 1
  31       22       30 2
  32       30       19 1
  33       16       31 2
  34       31       32 1
  35       32       33 2
  36       33        6 1
  37       33       15 1
  38        5       34 ar
  39       34       35 1
  40       34       36 ar
  41       36        2 ar
  42        1       37 1
  43        1       38 1
  44        1       39 1
  45        3       40 1
  46        4       41 1
  47       10       42 1
  48       11       43 1
  49       12       44 1
  50       13       45 1
  51       18       46 1
  52       18       47 1
  53       24       48 1
  54       25       49 1
  55       26       50 1
  56       27       51 1
  57       29       52 1
  58       35       53 1
  59       35       54 1
  60       35       55 1
  61       36       56 1

@<TRIPOS>MOLECULE

  56   61
SMALL
USER_CHARGES
@<TRIPOS>ATOM
   1 C1          -1.2006    -8.9378     1.7776 C.3          1    LIG   0.0000
   2 C2          -0.8959    -7.5681     1.1927 C.ar         1    LIG   0.0000
   3 C3           0.4213    -7.2081     0.9268 C.ar         1    LIG   0.0000
   4 C4           0.6950    -5.9532     0.3914 C.ar         1    LIG   0.0000
   5 C5          -0.3452    -5.0683     0.1254 C.ar         1    LIG   0.0000
   6 N6          -0.0697    -3.8056    -0.4129 N.pl3        1    LIG   0.0000
   7 C7          -0.0391    -3.6631    -1.7758 C.2          1    LIG   0.0000
   8 O8          -0.2519    -4.6413    -2.4794 O.2          1    LIG   0.0000
   9 C9           0.2408    -2.3796    -2.3211 C.ar         1    LIG   0.0000
  10 C10          0.2812    -2.1811    -3.6983 C.ar         1    LIG   0.0000
  11 C11          0.5500    -0.9343    -4.2521 C.ar         1    LIG   0.0000
  12 C12          0.7838     0.1354    -3.3952 C.ar         1    LIG   0.0000
  13 C13          0.7422    -0.0717    -2.0206 C.ar         1    LIG   0.0000
  14 C14          0.4738    -1.3158    -1.4513 C.ar         1    LIG   0.0000
  15 N15          0.4384    -1.5035    -0.0877 N.pl3        1    LIG   0.0000
  16 C16          0.6203    -0.6985     1.0000 C.2          1    LIG   0.0000
  17 S17          1.0000     1.0000     1.0000 S.3          1    LIG   0.0000
  18 C18          2.8100     1.0000     1.0000 C.3          1    LIG   0.0000
  19 C19          3.3167     0.5098    -0.3468 C.2          1    LIG   0.0000
  20 N20          3.5746     1.2519    -1.3931 N.2          1    LIG   0.0000
  21 O21          3.9796     0.5128    -2.3360 O.2          1    LIG   0.0000
  22 C22          3.9934    -0.7322    -1.9265 C.2          1    LIG   0.0000
  23 C23          4.3951    -1.8747    -2.7243 C.ar         1    LIG   0.0000
  24 C24          4.3657    -3.1521    -2.1741 C.ar         1    LIG   0.0000
  25 C25          4.7509    -4.2480    -2.9390 C.ar         1    LIG   0.0000
  26 C26          5.1642    -4.0674    -4.2550 C.ar         1    LIG   0.0000
  27 C27          5.1932    -2.7900    -4.8060 C.ar         1    LIG   0.0000
  28 C28          4.8097    -1.6938    -4.0408 C.ar         1    LIG   0.0000
  29 O29          4.8487    -0.4662    -4.6018 O.3          1    LIG   0.0000
  30 N30          3.5890    -0.7793    -0.6807 N.2          1    LIG   0.0000
  31 N31          0.4609    -1.4117     2.0882 N.2          1    LIG   0.0000
  32 N32          0.1860    -2.6473     1.7267 N.2          1    LIG   0.0000
  33 C33          0.1663    -2.7317     0.4135 C.2          1    LIG   0.0000
  34 C34         -1.6598    -5.4379     0.3954 C.ar         1    LIG   0.0000
  35 C35         -2.8126    -4.4880     0.1133 C.3          1    LIG   0.0000
  36 C36         -1.9427    -6.6904     0.9304 C.ar         1    LIG   0.0000
  37 H           -0.3470    -9.4429     1.9058 H            1    LIG   0.0000
  38 H           -1.6592    -8.8292     2.6596 H            1    LIG   0.0000
  39 H           -1.7958    -9.4425     1.1523 H            1    LIG   0.0000
  40 H            1.1664    -7.8468     1.1190 H            1    LIG   0.0000
  41 H            1.6393    -5.6874     0.1979 H            1    LIG   0.0000
  42 H            0.1123    -2.9568    -4.3064 H            1    LIG   0.0000
  43 H            0.5746    -0.8099    -5.2440 H            1    LIG   0.0000
  44 H            0.9799     1.0442    -3.7635 H            1    LIG   0.0000
  45 H            0.9121     0.7052    -1.4144 H            1    LIG   0.0000
  46 H            3.1433     0.3940     1.7222 H            1    LIG   0.0000
  47 H            3.1433     1.9285     1.1637 H            1    LIG   0.0000
  48 H            4.0676    -3.2824    -1.2285 H            1    LIG   0.0000
  49 H            4.7306    -5.1660    -2.5428 H            1    LIG   0.0000
  50 H            5.4405    -4.8556    -4.8050 H            1    LIG   0.0000
  51 H            5.4897    -2.6602    -5.7521 H            1    LIG   0.0000
  52 H            5.1498    -0.3588    -5.5493 H            1    LIG   0.0000
  53 H           -3.6749    -4.9249     0.3695 H            1    LIG   0.0000
  54 H           -2.6923    -3.6503     0.6460 H            1    LIG   0.0000
  55 H           -2.8292    -4.2639    -0.8611 H            1    LIG   0.0000
  56 H           -2.8870    -6.9566     1.1242 H            1    LIG   0.0000
@<TRIPOS>BOND
   1        1        2 1
   2        2        3 ar
   3        3        4 ar
   4        4        5 ar
   5        5        6 1
   6        6        7 1
   7        7        8 2
   8        7        9 1
   9        9       10 ar
  10       10       11 ar
  11       11       12 ar
  12       12       13 ar
  13       13       14 ar
  14       14        9 ar
  15       14       15 1
  16       15       16 1
  17       16       17 1
  18       17       18 1
  19       18       19 1
  20       19       20 2
  21       20       21 1
  22       21       22 1
  23       22       23 1
  24       23       24 ar
  25       24       25 ar
  26       25       26 ar
  27       26       27 ar
  28       27       28 ar
  29       28       23 ar
  30       28       29 1
  31       22       30 2
  32       30       19 1
  33       16       31 2
  34       31       32 1
  35       32       33 2
  36       33        6 1
  37       33       15 1
  38        5       34 ar
  39       34       35 1
  40       34       36 ar
  41       36        2 ar
  42        1       37 1
  43        1       38 1
  44        1       39 1
  45        3       40 1
  46        4       41 1
  47       10       42 1
  48       11       43 1
  49       12       44 1
  50       13       45 1
  51       18       46 1
  52       18       47 1
  53       24       48 1
  54       25       49 1
  55       26       50 1
  56       27       51 1
  57       29       52 1
  58       35       53 1
  59       35       54 1
  60       35       55 1
  61       36       56 1

@<TRIPOS>MOLECULE

  56   61
SMALL
USER_CHARGES
@<TRIPOS>ATOM
   1 C1          -0.5858    -9.0762     0.5763 C.3          1    LIG   0.0000
   2 C2          -0.7671    -7.5976     0.8794 C.ar         1    LIG   0.0000
   3 C3          -0.2593    -7.0674     2.0611 C.ar         1    LIG   0.0000
   4 C4          -0.4279    -5.7135     2.3340 C.ar         1    LIG   0.0000
   5 C5          -1.1004    -4.8995     1.4278 C.ar         1    LIG   0.0000
   6 N6          -1.2702    -3.5372     1.7027 N.pl3        1    LIG   0.0000
   7 C7          -2.3898    -3.1376     2.3852 C.2          1    LIG   0.0000
   8 O8          -3.2055    -3.9811     2.7320 O.2          1    LIG   0.0000
   9 C9          -2.5607    -1.7534     2.6638 C.ar         1    LIG   0.0000
  10 C10         -3.6786    -1.2960     3.3557 C.ar         1    LIG   0.0000
  11 C11         -3.8638     0.0523     3.6409 C.ar         1    LIG   0.0000
  12 C12         -2.8982     0.9584     3.2170 C.ar         1    LIG   0.0000
  13 C13         -1.7847     0.4931     2.5257 C.ar         1    LIG   0.0000
  14 C14         -1.5857    -0.8555     2.2329 C.ar         1    LIG   0.0000
  15 N15         -0.4780    -1.2987     1.5455 N.pl3        1    LIG   0.0000
  16 C16          0.6203    -0.6985     1.0000 C.2          1    LIG   0.0000
  17 S17          1.0000     1.0000     1.0000 S.3          1    LIG   0.0000
  18 C18          2.8100     1.0000     1.0000 C.3          1    LIG   0.0000
  19 C19          3.3167     0.5098    -0.3468 C.2          1    LIG   0.0000
  20 N20          3.5746     1.2519    -1.3931 N.2          1    LIG   0.0000
  21 O21          3.9796     0.5128    -2.3360 O.2          1    LIG   0.0000
  22 C22          3.9934    -0.7322    -1.9265 C.2          1    LIG   0.0000
  23 C23          4.3951    -1.8747    -2.7243 C.ar         1    LIG   0.0000
  24 C24          4.8098    -1.6931    -4.0398 C.ar         1    LIG   0.0000
  25 C25          5.1952    -2.7885    -4.8052 C.ar         1    LIG   0.0000
  26 C26          5.1676    -4.0661    -4.2553 C.ar         1    LIG   0.0000
  27 C27          4.7535    -4.2482    -2.9394 C.ar         1    LIG   0.0000
  28 C28          4.3665    -3.1531    -2.1743 C.ar         1    LIG   0.0000
  29 O29          3.9687    -3.3603    -0.9007 O.3          1    LIG   0.0000
  30 N30          3.5890    -0.7793    -0.6807 N.2          1    LIG   0.0000
  31 N31          1.3806    -1.6172     0.4559 N.2          1    LIG   0.0000
  32 N32          0.7983    -2.7842     0.6356 N.2          1    LIG   0.0000
  33 C33         -0.3300    -2.6207     1.2929 C.2          1    LIG   0.0000
  34 C34         -1.6050    -5.4396     0.2484 C.ar         1    LIG   0.0000
  35 C35         -2.3433    -4.5701    -0.7566 C.3          1    LIG   0.0000
  36 C36         -1.4410    -6.7921    -0.0327 C.ar         1    LIG   0.0000
  37 H           -0.0852    -9.5110     1.3249 H            1    LIG   0.0000
  38 H           -1.4821    -9.5089     0.4790 H            1    LIG   0.0000
  39 H           -0.0708    -9.1813    -0.2744 H            1    LIG   0.0000
  40 H            0.2237    -7.6554     2.7100 H            1    LIG   0.0000
  41 H           -0.0658    -5.3254     3.1815 H            1    LIG   0.0000
  42 H           -4.3678    -1.9554     3.6560 H            1    LIG   0.0000
  43 H           -4.6729     0.3631     4.1396 H            1    LIG   0.0000
  44 H           -3.0033     1.9345     3.4071 H            1    LIG   0.0000
  45 H           -1.0970     1.1543     2.2258 H            1    LIG   0.0000
  46 H            3.1433     0.3940     1.7222 H            1    LIG   0.0000
  47 H            3.1433     1.9285     1.1637 H            1    LIG   0.0000
  48 H            4.8308    -0.7748    -4.4350 H            1    LIG   0.0000
  49 H            5.4922    -2.6577    -5.7511 H            1    LIG   0.0000
  50 H            5.4453    -4.8535    -4.8056 H            1    LIG   0.0000
  51 H            4.7341    -5.1664    -2.5438 H            1    LIG   0.0000
  52 H            3.9556    -4.2871    -0.5254 H            1    LIG   0.0000
  53 H           -2.6292    -5.1294    -1.5347 H            1    LIG   0.0000
  54 H           -3.1488    -4.1681    -0.3212 H            1    LIG   0.0000
  55 H           -1.7375    -3.8409    -1.0749 H            1    LIG   0.0000
  56 H           -1.8031    -7.1805    -0.8801 H            1    LIG   0.0000
@<TRIPOS>BOND
   1        1        2 1
   2        2        3 ar
   3        3        4 ar
   4        4        5 ar
   5        5        6 1
   6        6        7 1
   7        7        8 2
   8        7        9 1
   9        9       10 ar
  10       10       11 ar
  11       11       12 ar
  12       12       13 ar
  13       13       14 ar
  14       14        9 ar
  15       14       15 1
  16       15       16 1
  17       16       17 1
  18       17       18 1
  19       18       19 1
  20       19       20 2
  21       20       21 1
  22       21       22 1
  23       22       23 1
  24       23       24 ar
  25       24       25 ar
  26       25       26 ar
  27       26       27 ar
  28       27       28 ar
  29       28       23 ar
  30       28       29 1
  31       22       30 2
  32       30       19 1
  33       16       31 2
  34       31       32 1
  35       32       33 2
  36       33        6 1
  37       33       15 1
  38        5       34 ar
  39       34       35 1
  40       34       36 ar
  41       36        2 ar
  42        1       37 1
  43        1       38 1
  44        1       39 1
  45        3       40 1
  46        4       41 1
  47       10       42 1
  48       11       43 1
  49       12       44 1
  50       13       45 1
  51       18       46 1
  52       18       47 1
  53       24       48 1
  54       25       49 1
  55       26       50 1
  56       27       51 1
  57       29       52 1
  58       35       53 1
  59       35       54 1
  60       35       55 1
  61       36       56 1

@<TRIPOS>MOLECULE

  56   61
SMALL
USER_CHARGES
@<TRIPOS>ATOM
   1 C1          -1.1799    -8.9434     1.7752 C.3          1    LIG   0.0000
   2 C2          -0.8861    -7.5710     1.1910 C.ar         1    LIG   0.0000
   3 C3          -1.9333    -6.6933     0.9292 C.ar         1    LIG   0.0000
   4 C4          -1.6593    -5.4382     0.3945 C.ar         1    LIG   0.0000
   5 C5          -0.3452    -5.0683     0.1254 C.ar         1    LIG   0.0000
   6 N6          -0.0697    -3.8056    -0.4129 N.pl3        1    LIG   0.0000
   7 C7          -0.0391    -3.6631    -1.7758 C.2          1    LIG   0.0000
   8 O8          -0.2519    -4.6413    -2.4794 O.2          1    LIG   0.0000
   9 C9           0.2408    -2.3796    -2.3211 C.ar         1    LIG   0.0000
  10 C10          0.2812    -2.1811    -3.6983 C.ar         1    LIG   0.0000
  11 C11          0.5500    -0.9343    -4.2521 C.ar         1    LIG   0.0000
  12 C12          0.7838     0.1354    -3.3952 C.ar         1    LIG   0.0000
  13 C13          0.7422    -0.0717    -2.0206 C.ar         1    LIG   0.0000
  14 C14          0.4738    -1.3158    -1.4513 C.ar         1    LIG   0.0000
  15 N15          0.4384    -1.5035    -0.0877 N.pl3        1    LIG   0.0000
  16 C16          0.6203    -0.6985     1.0000 C.2          1    LIG   0.0000
  17 S17          1.0000     1.0000     1.0000 S.3          1    LIG   0.0000
  18 C18          2.8100     1.0000     1.0000 C.3          1    LIG   0.0000
  19 C19          3.3167     0.5098    -0.3468 C.2          1    LIG   0.0000
  20 N20          3.5746     1.2519    -1.3931 N.2          1    LIG   0.0000
  21 O21          3.9796     0.5128    -2.3360 O.2          1    LIG   0.0000
  22 C22          3.9934    -0.7322    -1.9265 C.2          1    LIG   0.0000
  23 C23          4.3951    -1.8747    -2.7243 C.ar         1    LIG   0.0000
  24 C24          4.8098    -1.6931    -4.0398 C.ar         1    LIG   0.0000
  25 C25          5.1952    -2.7885    -4.8052 C.ar         1    LIG   0.0000
  26 C26          5.1676    -4.0661    -4.2553 C.ar         1    LIG   0.0000
  27 C27          4.7535    -4.2482    -2.9394 C.ar         1    LIG   0.0000
  28 C28          4.3665    -3.1531    -2.1743 C.ar         1    LIG   0.0000
  29 O29          3.9687    -3.3603    -0.9007 O.3          1    LIG   0.0000
  30 N30          3.5890    -0.7793    -0.6807 N.2          1    LIG   0.0000
  31 N31          0.4609    -1.4117     2.0882 N.2          1    LIG   0.0000
  32 N32          0.1860    -2.6473     1.7267 N.2          1    LIG   0.0000
  33 C33          0.1663    -2.7317     0.4135 C.2          1    LIG   0.0000
  34 C34          0.6954    -5.9538     0.3907 C.ar         1    LIG   0.0000
  35 C35          2.1389    -5.5720     0.1049 C.3          1    LIG   0.0000
  36 C36          0.4308    -7.2105     0.9254 C.ar         1    LIG   0.0000
  37 H           -2.1659    -9.0459     1.9061 H            1    LIG   0.0000
  38 H           -0.8516    -9.6498     1.1481 H            1    LIG   0.0000
  39 H           -0.7152    -9.0373     2.6557 H            1    LIG   0.0000
  40 H           -2.8765    -6.9625     1.1240 H            1    LIG   0.0000
  41 H           -2.4068    -4.8021     0.2035 H            1    LIG   0.0000
  42 H            0.1123    -2.9568    -4.3064 H            1    LIG   0.0000
  43 H            0.5746    -0.8099    -5.2440 H            1    LIG   0.0000
  44 H            0.9799     1.0442    -3.7635 H            1    LIG   0.0000
  45 H            0.9121     0.7052    -1.4144 H            1    LIG   0.0000
  46 H            3.1433     0.3940     1.7222 H            1    LIG   0.0000
  47 H            3.1433     1.9285     1.1637 H            1    LIG   0.0000
  48 H            4.8308    -0.7748    -4.4350 H            1    LIG   0.0000
  49 H            5.4922    -2.6577    -5.7511 H            1    LIG   0.0000
  50 H            5.4453    -4.8535    -4.8056 H            1    LIG   0.0000
  51 H            4.7341    -5.1664    -2.5438 H            1    LIG   0.0000
  52 H            3.9556    -4.2871    -0.5254 H            1    LIG   0.0000
  53 H            2.7404    -6.3297     0.3580 H            1    LIG   0.0000
  54 H            2.2446    -5.3736    -0.8695 H            1    LIG   0.0000
  55 H            2.3811    -4.7615     0.6383 H            1    LIG   0.0000
  56 H            1.1781    -7.8469     1.1164 H            1    LIG   0.0000
@<TRIPOS>BOND
   1        1        2 1
   2        2        3 ar
   3        3        4 ar
   4        4        5 ar
   5        5        6 1
   6        6        7 1
   7        7        8 2
   8        7        9 1
   9        9       10 ar
  10       10       11 ar
  11       11       12 ar
  12       12       13 ar
  13       13       14 ar
  14       14        9 ar
  15       14       15 1
  16       15       16 1
  17       16       17 1
  18       17       18 1
  19       18       19 1
  20       19       20 2
  21       20       21 1
  22       21       22 1
  23       22       23 1
  24       23       24 ar
  25       24       25 ar
  26       25       26 ar
  27       26       27 ar
  28       27       28 ar
  29       28       23 ar
  30       28       29 1
  31       22       30 2
  32       30       19 1
  33       16       31 2
  34       31       32 1
  35       32       33 2
  36       33        6 1
  37       33       15 1
  38        5       34 ar
  39       34       35 1
  40       34       36 ar
  41       36        2 ar
  42        1       37 1
  43        1       38 1
  44        1       39 1
  45        3       40 1
  46        4       41 1
  47       10       42 1
  48       11       43 1
  49       12       44 1
  50       13       45 1
  51       18       46 1
  52       18       47 1
  53       24       48 1
  54       25       49 1
  55       26       50 1
  56       27       51 1
  57       29       52 1
  58       35       53 1
  59       35       54 1
  60       35       55 1
  61       36       56 1

