@<TRIPOS>MOLECULE
*****
 56 61 0 0 0
SMALL
USER_CHARGES

@<TRIPOS>ATOM
      1 C1         -0.4615   -9.1030    0.9797 C.3     1  LIG1        0.0000
      2 C2         -0.7263   -7.6061    0.9812 C.3     1  LIG1        0.0000
      3 C3         -0.8464   -6.9247   -0.2258 C.3     1  LIG1        0.0000
      4 C4         -1.0887   -5.5545   -0.2191 C.3     1  LIG1        0.0000
      5 C5         -1.2094   -4.8751    0.9891 C.3     1  LIG1        0.0000
      6 N6         -1.4528   -3.4964    0.9956 N.am    1  LIG1        0.0000
      7 C7         -2.7511   -3.0568    0.9968 C.2     1  LIG1        0.0000
      8 O8         -3.6561   -3.8803    0.9911 O.2     1  LIG1        0.0000
      9 C9         -2.9968   -1.6559    1.0037 C.3     1  LIG1        0.0000
     10 C10        -4.2966   -1.1578    1.0075 C.3     1  LIG1        0.0000
     11 C11        -4.5588    0.2076    1.0172 C.3     1  LIG1        0.0000
     12 C12        -3.4837    1.0893    1.0223 C.3     1  LIG1        0.0000
     13 C13        -2.1883    0.5834    1.0178 C.3     1  LIG1        0.0000
     14 C14        -1.9103   -0.7829    1.0083 C.3     1  LIG1        0.0000
     15 N15        -0.6212   -1.2667    1.0020 N.pl3   1  LIG1        0.0000
     16 C16         0.6203   -0.6985    1.0000 C.2     1  LIG1        0.0000
     17 S17         1.0000    1.0000    1.0000 S.3     1  LIG1        0.0000
     18 C18         2.8100    1.0000    1.0000 C.3     1  LIG1        0.0000
     19 C19         3.3167    2.4332    1.0000 C.2     1  LIG1        0.0000
     20 N20         3.5746    3.1627   -0.0552 N.2     1  LIG1        0.0000
     21 O21         3.9754    4.3029    0.3168 O.2     1  LIG1        0.0000
     22 C22         3.9904    4.3435    1.6268 C.2     1  LIG1        0.0000
     23 C23         4.3948    5.4830    2.4275 C.3     1  LIG1        0.0000
     24 C24         4.3673    5.4023    3.8161 C.3     1  LIG1        0.0000
     25 C25         4.7551    6.4948    4.5843 C.3     1  LIG1        0.0000
     26 C26         5.1721    7.6685    3.9645 C.3     1  LIG1        0.0000
     27 C27         5.2004    7.7496    2.5757 C.3     1  LIG1        0.0000
     28 C28         4.8110    6.6577    1.8073 C.3     1  LIG1        0.0000
     29 O29         4.8481    6.7656    0.4619 O.2     1  LIG1        0.0000
     30 N30         3.5793    3.1914    2.0972 N.2     1  LIG1        0.0000
     31 N31         1.5229   -1.6490    1.0000 N.2     1  LIG1        0.0000
     32 N32         0.8940   -2.8056    0.9988 N.2     1  LIG1        0.0000
     33 C33        -0.4065   -2.6036    0.9996 C.2     1  LIG1        0.0000
     34 C34        -1.0872   -5.5659    2.1913 C.3     1  LIG1        0.0000
     35 C35        -1.2151   -4.8451    3.5237 C.3     1  LIG1        0.0000
     36 C36        -0.8451   -6.9358    2.1942 C.3     1  LIG1        0.0000
     37 H          -0.4033   -9.4303    0.0366 H       1  LIG1        0.0000
     38 H           0.4005   -9.2896    1.4510 H       1  LIG1        0.0000
     39 H          -1.2075   -9.5740    1.4505 H       1  LIG1        0.0000
     40 H          -0.7593   -7.4163   -1.0922 H       1  LIG1        0.0000
     41 H          -1.1761   -5.0581   -1.0827 H       1  LIG1        0.0000
     42 H          -5.0632   -1.7999    1.0032 H       1  LIG1        0.0000
     43 H          -5.4992    0.5478    1.0203 H       1  LIG1        0.0000
     44 H          -3.6404    2.0769    1.0292 H       1  LIG1        0.0000
     45 H          -1.4232    1.2272    1.0215 H       1  LIG1        0.0000
     46 H           3.1433    0.5286    0.1835 H       1  LIG1        0.0000
     47 H           3.1433    0.5286    1.8165 H       1  LIG1        0.0000
     48 H           4.0687    4.5584    4.2619 H       1  LIG1        0.0000
     49 H           4.7342    6.4368    5.5824 H       1  LIG1        0.0000
     50 H           5.4515    8.4538    4.5170 H       1  LIG1        0.0000
     51 H           5.5007    8.5929    2.1301 H       1  LIG1        0.0000
     52 H           5.1505    7.6188    0.0368 H       1  LIG1        0.0000
     53 H          -1.0991   -5.5007    4.2698 H       1  LIG1        0.0000
     54 H          -0.5112   -4.1378    3.5889 H       1  LIG1        0.0000
     55 H          -2.1191   -4.4226    3.5887 H       1  LIG1        0.0000
     56 H          -0.7577   -7.4325    3.0577 H       1  LIG1        0.0000
@<TRIPOS>BOND
     1     1     2    1
     2     2     3   ar
     3     3     4   ar
     4     4     5   ar
     5     5     6    1
     6     6     7   am
     7     7     8    2
     8     7     9    1
     9     9    10   ar
    10    10    11   ar
    11    11    12   ar
    12    12    13   ar
    13    13    14   ar
    14    14     9   ar
    15    14    15    1
    16    15    16    1
    17    16    17    1
    18    17    18    1
    19    18    19    1
    20    19    20    2
    21    20    21    1
    22    21    22    1
    23    22    23    1
    24    23    24   ar
    25    24    25   ar
    26    25    26   ar
    27    26    27   ar
    28    27    28   ar
    29    28    23   ar
    30    28    29    1
    31    22    30    2
    32    30    19    1
    33    16    31    2
    34    31    32    1
    35    32    33    2
    36    33     6    1
    37    33    15    1
    38     5    34   ar
    39    34    35    1
    40    34    36   ar
    41    36     2   ar
    42     1    37    1
    43     1    38    1
    44     1    39    1
    45     3    40    1
    46     4    41    1
    47    10    42    1
    48    11    43    1
    49    12    44    1
    50    13    45    1
    51    18    46    1
    52    18    47    1
    53    24    48    1
    54    25    49    1
    55    26    50    1
    56    27    51    1
    57    29    52    1
    58    35    53    1
    59    35    54    1
    60    35    55    1
    61    36    56    1
