@<TRIPOS>MOLECULE
*****
 56 61 0 0 0
SMALL
USER_CHARGES

@<TRIPOS>ATOM
      1 C1         -1.2006   -8.9378    1.7776 C.3     1  LIG1        0.0000
      2 C2         -0.8959   -7.5681    1.1927 C.3     1  LIG1        0.0000
      3 C3          0.4213   -7.2081    0.9268 C.3     1  LIG1        0.0000
      4 C4          0.6950   -5.9532    0.3914 C.3     1  LIG1        0.0000
      5 C5         -0.3452   -5.0683    0.1254 C.3     1  LIG1        0.0000
      6 N6         -0.0697   -3.8056   -0.4129 N.am    1  LIG1        0.0000
      7 C7         -0.0391   -3.6631   -1.7758 C.2     1  LIG1        0.0000
      8 O8         -0.2519   -4.6413   -2.4794 O.2     1  LIG1        0.0000
      9 C9          0.2408   -2.3796   -2.3211 C.3     1  LIG1        0.0000
     10 C10         0.2812   -2.1811   -3.6983 C.3     1  LIG1        0.0000
     11 C11         0.5500   -0.9343   -4.2521 C.3     1  LIG1        0.0000
     12 C12         0.7838    0.1354   -3.3952 C.3     1  LIG1        0.0000
     13 C13         0.7422   -0.0717   -2.0206 C.3     1  LIG1        0.0000
     14 C14         0.4738   -1.3158   -1.4513 C.3     1  LIG1        0.0000
     15 N15         0.4384   -1.5035   -0.0877 N.pl3   1  LIG1        0.0000
     16 C16         0.6203   -0.6985    1.0000 C.2     1  LIG1        0.0000
     17 S17         1.0000    1.0000    1.0000 S.3     1  LIG1        0.0000
     18 C18         2.8100    1.0000    1.0000 C.3     1  LIG1        0.0000
     19 C19         3.3167    0.5098   -0.3468 C.2     1  LIG1        0.0000
     20 N20         3.5746    1.2519   -1.3931 N.2     1  LIG1        0.0000
     21 O21         3.9796    0.5128   -2.3360 O.2     1  LIG1        0.0000
     22 C22         3.9934   -0.7322   -1.9265 C.2     1  LIG1        0.0000
     23 C23         4.3951   -1.8747   -2.7243 C.3     1  LIG1        0.0000
     24 C24         4.3657   -3.1521   -2.1741 C.3     1  LIG1        0.0000
     25 C25         4.7509   -4.2480   -2.9390 C.3     1  LIG1        0.0000
     26 C26         5.1642   -4.0674   -4.2550 C.3     1  LIG1        0.0000
     27 C27         5.1932   -2.7900   -4.8060 C.3     1  LIG1        0.0000
     28 C28         4.8097   -1.6938   -4.0408 C.3     1  LIG1        0.0000
     29 O29         4.8487   -0.4662   -4.6018 O.2     1  LIG1        0.0000
     30 N30         3.5890   -0.7793   -0.6807 N.2     1  LIG1        0.0000
     31 N31         0.4609   -1.4117    2.0882 N.2     1  LIG1        0.0000
     32 N32         0.1860   -2.6473    1.7267 N.2     1  LIG1        0.0000
     33 C33         0.1663   -2.7317    0.4135 C.2     1  LIG1        0.0000
     34 C34        -1.6598   -5.4379    0.3954 C.3     1  LIG1        0.0000
     35 C35        -2.8126   -4.4880    0.1133 C.3     1  LIG1        0.0000
     36 C36        -1.9427   -6.6904    0.9304 C.3     1  LIG1        0.0000
     37 H          -0.3470   -9.4429    1.9058 H       1  LIG1        0.0000
     38 H          -1.6592   -8.8292    2.6596 H       1  LIG1        0.0000
     39 H          -1.7958   -9.4425    1.1523 H       1  LIG1        0.0000
     40 H           1.1664   -7.8468    1.1190 H       1  LIG1        0.0000
     41 H           1.6393   -5.6874    0.1979 H       1  LIG1        0.0000
     42 H           0.1123   -2.9568   -4.3064 H       1  LIG1        0.0000
     43 H           0.5746   -0.8099   -5.2440 H       1  LIG1        0.0000
     44 H           0.9799    1.0442   -3.7635 H       1  LIG1        0.0000
     45 H           0.9121    0.7052   -1.4144 H       1  LIG1        0.0000
     46 H           3.1433    0.3940    1.7222 H       1  LIG1        0.0000
     47 H           3.1433    1.9285    1.1637 H       1  LIG1        0.0000
     48 H           4.0676   -3.2824   -1.2285 H       1  LIG1        0.0000
     49 H           4.7306   -5.1660   -2.5428 H       1  LIG1        0.0000
     50 H           5.4405   -4.8556   -4.8050 H       1  LIG1        0.0000
     51 H           5.4897   -2.6602   -5.7521 H       1  LIG1        0.0000
     52 H           5.1498   -0.3588   -5.5493 H       1  LIG1        0.0000
     53 H          -3.6749   -4.9249    0.3695 H       1  LIG1        0.0000
     54 H          -2.6923   -3.6503    0.6460 H       1  LIG1        0.0000
     55 H          -2.8292   -4.2639   -0.8611 H       1  LIG1        0.0000
     56 H          -2.8870   -6.9566    1.1242 H       1  LIG1        0.0000
@<TRIPOS>BOND
     1     1     2    1
     2     2     3   ar
     3     3     4   ar
     4     4     5   ar
     5     5     6    1
     6     6     7   am
     7     7     8    2
     8     7     9    1
     9     9    10   ar
    10    10    11   ar
    11    11    12   ar
    12    12    13   ar
    13    13    14   ar
    14    14     9   ar
    15    14    15    1
    16    15    16    1
    17    16    17    1
    18    17    18    1
    19    18    19    1
    20    19    20    2
    21    20    21    1
    22    21    22    1
    23    22    23    1
    24    23    24   ar
    25    24    25   ar
    26    25    26   ar
    27    26    27   ar
    28    27    28   ar
    29    28    23   ar
    30    28    29    1
    31    22    30    2
    32    30    19    1
    33    16    31    2
    34    31    32    1
    35    32    33    2
    36    33     6    1
    37    33    15    1
    38     5    34   ar
    39    34    35    1
    40    34    36   ar
    41    36     2   ar
    42     1    37    1
    43     1    38    1
    44     1    39    1
    45     3    40    1
    46     4    41    1
    47    10    42    1
    48    11    43    1
    49    12    44    1
    50    13    45    1
    51    18    46    1
    52    18    47    1
    53    24    48    1
    54    25    49    1
    55    26    50    1
    56    27    51    1
    57    29    52    1
    58    35    53    1
    59    35    54    1
    60    35    55    1
    61    36    56    1
