@<TRIPOS>MOLECULE
*****
 56 61 0 0 0
SMALL
USER_CHARGES

@<TRIPOS>ATOM
      1 C1         -1.2402   -8.9290    0.2224 C.3     1  LIG1        0.0000
      2 C2         -0.9326   -7.5599    0.8073 C.3     1  LIG1        0.0000
      3 C3         -1.9712   -6.6733    1.0732 C.3     1  LIG1        0.0000
      4 C4         -1.6845   -5.4213    1.6086 C.3     1  LIG1        0.0000
      5 C5         -0.3665   -5.0635    1.8746 C.3     1  LIG1        0.0000
      6 N6         -0.0782   -3.8037    2.4129 N.am    1  LIG1        0.0000
      7 C7         -0.0453   -3.6617    3.7758 C.2     1  LIG1        0.0000
      8 O8         -0.2692   -4.6374    4.4794 O.2     1  LIG1        0.0000
      9 C9          0.2480   -2.3812    4.3211 C.3     1  LIG1        0.0000
     10 C10         0.2959   -2.1844    5.6983 C.3     1  LIG1        0.0000
     11 C11         0.5835   -0.9418    6.2521 C.3     1  LIG1        0.0000
     12 C12         0.8274    0.1256    5.3952 C.3     1  LIG1        0.0000
     13 C13         0.7769   -0.0795    4.0206 C.3     1  LIG1        0.0000
     14 C14         0.4901   -1.3195    3.4513 C.3     1  LIG1        0.0000
     15 N15         0.4422   -1.5044    2.0877 N.pl3   1  LIG1        0.0000
     16 C16         0.6203   -0.6985    1.0000 C.2     1  LIG1        0.0000
     17 S17         1.0000    1.0000    1.0000 S.3     1  LIG1        0.0000
     18 C18         2.8100    1.0000    1.0000 C.3     1  LIG1        0.0000
     19 C19         3.3167    0.5098    2.3468 C.2     1  LIG1        0.0000
     20 N20         3.5746   -0.7313    2.6713 N.2     1  LIG1        0.0000
     21 O21         3.9796   -0.7712    3.8687 O.2     1  LIG1        0.0000
     22 C22         3.9934    0.4459    4.3553 C.2     1  LIG1        0.0000
     23 C23         4.3951    0.8082    5.7008 C.3     1  LIG1        0.0000
     24 C24         4.3657    2.1404    6.1005 C.3     1  LIG1        0.0000
     25 C25         4.7509    2.4883    7.3908 C.3     1  LIG1        0.0000
     26 C26         5.1642    1.5040    8.2829 C.3     1  LIG1        0.0000
     27 C27         5.1932    0.1713    7.8838 C.3     1  LIG1        0.0000
     28 C28         4.8097   -0.1766    6.5930 C.3     1  LIG1        0.0000
     29 O29         4.8487   -1.4776    6.2337 O.2     1  LIG1        0.0000
     30 N30         3.5890    1.2827    3.4313 N.2     1  LIG1        0.0000
     31 N31         0.4609   -1.4117   -0.0882 N.2     1  LIG1        0.0000
     32 N32         0.1836   -2.6468    0.2733 N.2     1  LIG1        0.0000
     33 C33         0.1655   -2.7315    1.5865 C.2     1  LIG1        0.0000
     34 C34         0.6655   -5.9577    1.6046 C.3     1  LIG1        0.0000
     35 C35         2.1131   -5.5890    1.8867 C.3     1  LIG1        0.0000
     36 C36         0.3882   -7.2115    1.0696 C.3     1  LIG1        0.0000
     37 H          -2.2275   -9.0226    0.0942 H       1  LIG1        0.0000
     38 H          -0.7789   -9.0259   -0.6596 H       1  LIG1        0.0000
     39 H          -0.9164   -9.6390    0.8477 H       1  LIG1        0.0000
     40 H          -2.9173   -6.9339    0.8810 H       1  LIG1        0.0000
     41 H          -2.4258   -4.7787    1.8021 H       1  LIG1        0.0000
     42 H           0.1185   -2.9582    6.3064 H       1  LIG1        0.0000
     43 H           0.6143   -0.8187    7.2440 H       1  LIG1        0.0000
     44 H           1.0370    1.0314    5.7635 H       1  LIG1        0.0000
     45 H           0.9540    0.6959    3.4144 H       1  LIG1        0.0000
     46 H           3.1433    1.9285    0.8363 H       1  LIG1        0.0000
     47 H           3.1433    0.3940    0.2778 H       1  LIG1        0.0000
     48 H           4.0676    2.8480    5.4598 H       1  LIG1        0.0000
     49 H           4.7306    3.4462    7.6774 H       1  LIG1        0.0000
     50 H           5.4405    1.7543    9.2108 H       1  LIG1        0.0000
     51 H           5.4897   -0.5363    8.5252 H       1  LIG1        0.0000
     52 H           5.1498   -2.1689    6.8904 H       1  LIG1        0.0000
     53 H           2.7073   -6.3515    1.6305 H       1  LIG1        0.0000
     54 H           2.3609   -4.7798    1.3540 H       1  LIG1        0.0000
     55 H           2.2235   -5.3933    2.8611 H       1  LIG1        0.0000
     56 H           1.1293   -7.8543    0.8758 H       1  LIG1        0.0000
@<TRIPOS>BOND
     1     1     2    1
     2     2     3   ar
     3     3     4   ar
     4     4     5   ar
     5     5     6    1
     6     6     7   am
     7     7     8    2
     8     7     9    1
     9     9    10   ar
    10    10    11   ar
    11    11    12   ar
    12    12    13   ar
    13    13    14   ar
    14    14     9   ar
    15    14    15    1
    16    15    16    1
    17    16    17    1
    18    17    18    1
    19    18    19    1
    20    19    20    2
    21    20    21    1
    22    21    22    1
    23    22    23    1
    24    23    24   ar
    25    24    25   ar
    26    25    26   ar
    27    26    27   ar
    28    27    28   ar
    29    28    23   ar
    30    28    29    1
    31    22    30    2
    32    30    19    1
    33    16    31    2
    34    31    32    1
    35    32    33    2
    36    33     6    1
    37    33    15    1
    38     5    34   ar
    39    34    35    1
    40    34    36   ar
    41    36     2   ar
    42     1    37    1
    43     1    38    1
    44     1    39    1
    45     3    40    1
    46     4    41    1
    47    10    42    1
    48    11    43    1
    49    12    44    1
    50    13    45    1
    51    18    46    1
    52    18    47    1
    53    24    48    1
    54    25    49    1
    55    26    50    1
    56    27    51    1
    57    29    52    1
    58    35    53    1
    59    35    54    1
    60    35    55    1
    61    36    56    1
