@<TRIPOS>MOLECULE
*****
 56 61 0 0 0
SMALL
USER_CHARGES

@<TRIPOS>ATOM
      1 C1         -0.5858   -9.0762    0.5763 C.3     1  LIG1        0.0000
      2 C2         -0.7671   -7.5976    0.8794 C.3     1  LIG1        0.0000
      3 C3         -0.2593   -7.0674    2.0611 C.3     1  LIG1        0.0000
      4 C4         -0.4279   -5.7135    2.3340 C.3     1  LIG1        0.0000
      5 C5         -1.1004   -4.8995    1.4278 C.3     1  LIG1        0.0000
      6 N6         -1.2702   -3.5372    1.7027 N.am    1  LIG1        0.0000
      7 C7         -2.3898   -3.1376    2.3852 C.2     1  LIG1        0.0000
      8 O8         -3.2055   -3.9811    2.7320 O.2     1  LIG1        0.0000
      9 C9         -2.5607   -1.7534    2.6638 C.3     1  LIG1        0.0000
     10 C10        -3.6786   -1.2960    3.3557 C.3     1  LIG1        0.0000
     11 C11        -3.8638    0.0523    3.6409 C.3     1  LIG1        0.0000
     12 C12        -2.8982    0.9584    3.2170 C.3     1  LIG1        0.0000
     13 C13        -1.7847    0.4931    2.5257 C.3     1  LIG1        0.0000
     14 C14        -1.5857   -0.8555    2.2329 C.3     1  LIG1        0.0000
     15 N15        -0.4780   -1.2987    1.5455 N.pl3   1  LIG1        0.0000
     16 C16         0.6203   -0.6985    1.0000 C.2     1  LIG1        0.0000
     17 S17         1.0000    1.0000    1.0000 S.3     1  LIG1        0.0000
     18 C18         2.8100    1.0000    1.0000 C.3     1  LIG1        0.0000
     19 C19         3.3167    0.5098   -0.3468 C.2     1  LIG1        0.0000
     20 N20         3.5746    1.2519   -1.3931 N.2     1  LIG1        0.0000
     21 O21         3.9796    0.5128   -2.3360 O.2     1  LIG1        0.0000
     22 C22         3.9934   -0.7322   -1.9265 C.2     1  LIG1        0.0000
     23 C23         4.3951   -1.8747   -2.7243 C.3     1  LIG1        0.0000
     24 C24         4.8098   -1.6931   -4.0398 C.3     1  LIG1        0.0000
     25 C25         5.1952   -2.7885   -4.8052 C.3     1  LIG1        0.0000
     26 C26         5.1676   -4.0661   -4.2553 C.3     1  LIG1        0.0000
     27 C27         4.7535   -4.2482   -2.9394 C.3     1  LIG1        0.0000
     28 C28         4.3665   -3.1531   -2.1743 C.3     1  LIG1        0.0000
     29 O29         3.9687   -3.3603   -0.9007 O.2     1  LIG1        0.0000
     30 N30         3.5890   -0.7793   -0.6807 N.2     1  LIG1        0.0000
     31 N31         1.3806   -1.6172    0.4559 N.2     1  LIG1        0.0000
     32 N32         0.7983   -2.7842    0.6356 N.2     1  LIG1        0.0000
     33 C33        -0.3300   -2.6207    1.2929 C.2     1  LIG1        0.0000
     34 C34        -1.6050   -5.4396    0.2484 C.3     1  LIG1        0.0000
     35 C35        -2.3433   -4.5701   -0.7566 C.3     1  LIG1        0.0000
     36 C36        -1.4410   -6.7921   -0.0327 C.3     1  LIG1        0.0000
     37 H          -0.0852   -9.5110    1.3249 H       1  LIG1        0.0000
     38 H          -1.4821   -9.5089    0.4790 H       1  LIG1        0.0000
     39 H          -0.0708   -9.1813   -0.2744 H       1  LIG1        0.0000
     40 H           0.2237   -7.6554    2.7100 H       1  LIG1        0.0000
     41 H          -0.0658   -5.3254    3.1815 H       1  LIG1        0.0000
     42 H          -4.3678   -1.9554    3.6560 H       1  LIG1        0.0000
     43 H          -4.6729    0.3631    4.1396 H       1  LIG1        0.0000
     44 H          -3.0033    1.9345    3.4071 H       1  LIG1        0.0000
     45 H          -1.0970    1.1543    2.2258 H       1  LIG1        0.0000
     46 H           3.1433    0.3940    1.7222 H       1  LIG1        0.0000
     47 H           3.1433    1.9285    1.1637 H       1  LIG1        0.0000
     48 H           4.8308   -0.7748   -4.4350 H       1  LIG1        0.0000
     49 H           5.4922   -2.6577   -5.7511 H       1  LIG1        0.0000
     50 H           5.4453   -4.8535   -4.8056 H       1  LIG1        0.0000
     51 H           4.7341   -5.1664   -2.5438 H       1  LIG1        0.0000
     52 H           3.9556   -4.2871   -0.5254 H       1  LIG1        0.0000
     53 H          -2.6292   -5.1294   -1.5347 H       1  LIG1        0.0000
     54 H          -3.1488   -4.1681   -0.3212 H       1  LIG1        0.0000
     55 H          -1.7375   -3.8409   -1.0749 H       1  LIG1        0.0000
     56 H          -1.8031   -7.1805   -0.8801 H       1  LIG1        0.0000
@<TRIPOS>BOND
     1     1     2    1
     2     2     3   ar
     3     3     4   ar
     4     4     5   ar
     5     5     6    1
     6     6     7   am
     7     7     8    2
     8     7     9    1
     9     9    10   ar
    10    10    11   ar
    11    11    12   ar
    12    12    13   ar
    13    13    14   ar
    14    14     9   ar
    15    14    15    1
    16    15    16    1
    17    16    17    1
    18    17    18    1
    19    18    19    1
    20    19    20    2
    21    20    21    1
    22    21    22    1
    23    22    23    1
    24    23    24   ar
    25    24    25   ar
    26    25    26   ar
    27    26    27   ar
    28    27    28   ar
    29    28    23   ar
    30    28    29    1
    31    22    30    2
    32    30    19    1
    33    16    31    2
    34    31    32    1
    35    32    33    2
    36    33     6    1
    37    33    15    1
    38     5    34   ar
    39    34    35    1
    40    34    36   ar
    41    36     2   ar
    42     1    37    1
    43     1    38    1
    44     1    39    1
    45     3    40    1
    46     4    41    1
    47    10    42    1
    48    11    43    1
    49    12    44    1
    50    13    45    1
    51    18    46    1
    52    18    47    1
    53    24    48    1
    54    25    49    1
    55    26    50    1
    56    27    51    1
    57    29    52    1
    58    35    53    1
    59    35    54    1
    60    35    55    1
    61    36    56    1
