@<TRIPOS>MOLECULE

  26   27
SMALL
USER_CHARGES
@<TRIPOS>ATOM
   1 C1           0.3887    -0.2817     1.0040 C.3          1    LIG   0.0000
   2 O2           1.0000     1.0000     1.0000 O.3          1    LIG   0.0000
   3 C3           2.3502     1.0000     1.0000 C.ar         1    LIG   0.0000
   4 C4           3.0176    -0.2206     1.0043 C.ar         1    LIG   0.0000
   5 C5           4.4088    -0.2373     1.0045 C.ar         1    LIG   0.0000
   6 O6           5.0497    -1.4259     1.0097 O.3          1    LIG   0.0000
   7 C7           5.1391     0.9465     1.0005 C.ar         1    LIG   0.0000
   8 C8           4.4652     2.1637     0.9960 C.ar         1    LIG   0.0000
   9 C9           3.0738     2.1889     0.9963 C.ar         1    LIG   0.0000
  10 C10          2.4048     3.4746     0.9921 C.ar         1    LIG   0.0000
  11 C11          3.1863     4.6249     0.9880 C.ar         1    LIG   0.0000
  12 C12          2.5520     5.8620     0.9839 C.ar         1    LIG   0.0000
  13 C13          1.1629     5.9308     0.9844 C.ar         1    LIG   0.0000
  14 C14          0.4375     4.7447     0.9882 C.ar         1    LIG   0.0000
  15 N15          1.0660     3.5596     0.9921 N.ar         1    LIG   0.0000
  16 H           -0.6058    -0.1766     1.0037 H            1    LIG   0.0000
  17 H            0.6707    -0.7880     0.1891 H            1    LIG   0.0000
  18 H            0.6707    -0.7829     1.8221 H            1    LIG   0.0000
  19 H            2.5025    -1.0777     1.0073 H            1    LIG   0.0000
  20 H            6.0493    -1.4550     1.0099 H            1    LIG   0.0000
  21 H            6.1388     0.9229     1.0008 H            1    LIG   0.0000
  22 H            4.9808     3.0205     0.9927 H            1    LIG   0.0000
  23 H            4.1845     4.5635     0.9881 H            1    LIG   0.0000
  24 H            3.0943     6.7022     0.9805 H            1    LIG   0.0000
  25 H            0.6957     6.8149     0.9821 H            1    LIG   0.0000
  26 H           -0.5620     4.7753     0.9881 H            1    LIG   0.0000
@<TRIPOS>BOND
   1        1        2 1
   2        2        3 1
   3        3        4 ar
   4        4        5 ar
   5        5        6 1
   6        5        7 ar
   7        7        8 ar
   8        8        9 ar
   9        9        3 ar
  10        9       10 1
  11       10       11 ar
  12       11       12 ar
  13       12       13 ar
  14       13       14 ar
  15       14       15 ar
  16       15       10 ar
  17        1       16 1
  18        1       17 1
  19        1       18 1
  20        4       19 1
  21        6       20 1
  22        7       21 1
  23        8       22 1
  24       11       23 1
  25       12       24 1
  26       13       25 1
  27       14       26 1

@<TRIPOS>MOLECULE

  26   27
SMALL
USER_CHARGES
@<TRIPOS>ATOM
   1 C1           0.3887    -0.2817     1.0040 C.3          1    LIG   0.0000
   2 O2           1.0000     1.0000     1.0000 O.3          1    LIG   0.0000
   3 C3           2.3502     1.0000     1.0000 C.ar         1    LIG   0.0000
   4 C4           3.0176    -0.2206     1.0043 C.ar         1    LIG   0.0000
   5 C5           4.4088    -0.2373     1.0045 C.ar         1    LIG   0.0000
   6 O6           5.0497    -1.4259     1.0097 O.3          1    LIG   0.0000
   7 C7           5.1391     0.9465     1.0005 C.ar         1    LIG   0.0000
   8 C8           4.4652     2.1637     0.9960 C.ar         1    LIG   0.0000
   9 C9           3.0738     2.1889     0.9963 C.ar         1    LIG   0.0000
  10 C10          2.4048     3.4746     0.9921 C.ar         1    LIG   0.0000
  11 C11          3.1207     4.5894     0.5694 C.ar         1    LIG   0.0000
  12 C12          2.4859     5.8263     0.5624 C.ar         1    LIG   0.0000
  13 C13          1.1613     5.9299     0.9734 C.ar         1    LIG   0.0000
  14 C14          0.4996     4.7782     1.3845 C.ar         1    LIG   0.0000
  15 N15          1.1275     3.5929     1.3848 N.ar         1    LIG   0.0000
  16 H           -0.6058    -0.1766     1.0037 H            1    LIG   0.0000
  17 H            0.6707    -0.7880     0.1891 H            1    LIG   0.0000
  18 H            0.6707    -0.7829     1.8221 H            1    LIG   0.0000
  19 H            2.5025    -1.0777     1.0073 H            1    LIG   0.0000
  20 H            6.0493    -1.4550     1.0099 H            1    LIG   0.0000
  21 H            6.1388     0.9229     1.0008 H            1    LIG   0.0000
  22 H            4.9808     3.0205     0.9927 H            1    LIG   0.0000
  23 H            4.0729     4.5032     0.2764 H            1    LIG   0.0000
  24 H            2.9815     6.6411     0.2620 H            1    LIG   0.0000
  25 H            0.6945     6.8143     0.9732 H            1    LIG   0.0000
  26 H           -0.4533     4.8341     1.6826 H            1    LIG   0.0000
@<TRIPOS>BOND
   1        1        2 1
   2        2        3 1
   3        3        4 ar
   4        4        5 ar
   5        5        6 1
   6        5        7 ar
   7        7        8 ar
   8        8        9 ar
   9        9        3 ar
  10        9       10 1
  11       10       11 ar
  12       11       12 ar
  13       12       13 ar
  14       13       14 ar
  15       14       15 ar
  16       15       10 ar
  17        1       16 1
  18        1       17 1
  19        1       18 1
  20        4       19 1
  21        6       20 1
  22        7       21 1
  23        8       22 1
  24       11       23 1
  25       12       24 1
  26       13       25 1
  27       14       26 1

@<TRIPOS>MOLECULE

  26   27
SMALL
USER_CHARGES
@<TRIPOS>ATOM
   1 C1           0.3887    -0.2817     1.0040 C.3          1    LIG   0.0000
   2 O2           1.0000     1.0000     1.0000 O.3          1    LIG   0.0000
   3 C3           2.3502     1.0000     1.0000 C.ar         1    LIG   0.0000
   4 C4           3.0176    -0.2206     1.0043 C.ar         1    LIG   0.0000
   5 C5           4.4088    -0.2373     1.0045 C.ar         1    LIG   0.0000
   6 O6           5.0497    -1.4259     1.0097 O.3          1    LIG   0.0000
   7 C7           5.1391     0.9465     1.0005 C.ar         1    LIG   0.0000
   8 C8           4.4652     2.1637     0.9960 C.ar         1    LIG   0.0000
   9 C9           3.0738     2.1889     0.9963 C.ar         1    LIG   0.0000
  10 C10          2.4048     3.4746     0.9921 C.ar         1    LIG   0.0000
  11 C11          3.1210     4.5922     1.4069 C.ar         1    LIG   0.0000
  12 C12          2.4862     5.8291     1.4056 C.ar         1    LIG   0.0000
  13 C13          1.1612     5.9299     0.9954 C.ar         1    LIG   0.0000
  14 C14          0.4994     4.7756     0.5918 C.ar         1    LIG   0.0000
  15 N15          1.1273     3.5903     0.5993 N.ar         1    LIG   0.0000
  16 H           -0.6058    -0.1766     1.0037 H            1    LIG   0.0000
  17 H            0.6707    -0.7880     0.1891 H            1    LIG   0.0000
  18 H            0.6707    -0.7829     1.8221 H            1    LIG   0.0000
  19 H            2.5025    -1.0777     1.0073 H            1    LIG   0.0000
  20 H            6.0493    -1.4550     1.0099 H            1    LIG   0.0000
  21 H            6.1388     0.9229     1.0008 H            1    LIG   0.0000
  22 H            4.9808     3.0205     0.9927 H            1    LIG   0.0000
  23 H            4.0733     4.5079     1.7002 H            1    LIG   0.0000
  24 H            2.9823     6.6462     1.6996 H            1    LIG   0.0000
  25 H            0.6941     6.8141     0.9909 H            1    LIG   0.0000
  26 H           -0.4534     4.8296     0.2931 H            1    LIG   0.0000
@<TRIPOS>BOND
   1        1        2 1
   2        2        3 1
   3        3        4 ar
   4        4        5 ar
   5        5        6 1
   6        5        7 ar
   7        7        8 ar
   8        8        9 ar
   9        9        3 ar
  10        9       10 1
  11       10       11 ar
  12       11       12 ar
  13       12       13 ar
  14       13       14 ar
  15       14       15 ar
  16       15       10 ar
  17        1       16 1
  18        1       17 1
  19        1       18 1
  20        4       19 1
  21        6       20 1
  22        7       21 1
  23        8       22 1
  24       11       23 1
  25       12       24 1
  26       13       25 1
  27       14       26 1

@<TRIPOS>MOLECULE

  26   27
SMALL
USER_CHARGES
@<TRIPOS>ATOM
   1 C1           0.3887    -0.2817     1.0040 C.3          1    LIG   0.0000
   2 O2           1.0000     1.0000     1.0000 O.3          1    LIG   0.0000
   3 C3           2.3502     1.0000     1.0000 C.ar         1    LIG   0.0000
   4 C4           3.0176    -0.2206     1.0043 C.ar         1    LIG   0.0000
   5 C5           4.4088    -0.2373     1.0045 C.ar         1    LIG   0.0000
   6 O6           5.0497    -1.4259     1.0097 O.3          1    LIG   0.0000
   7 C7           5.1391     0.9465     1.0005 C.ar         1    LIG   0.0000
   8 C8           4.4652     2.1637     0.9960 C.ar         1    LIG   0.0000
   9 C9           3.0738     2.1889     0.9963 C.ar         1    LIG   0.0000
  10 C10          2.4048     3.4746     0.9921 C.ar         1    LIG   0.0000
  11 C11          2.0999     4.0556    -0.2341 C.ar         1    LIG   0.0000
  12 C12          1.4580     5.2888    -0.2464 C.ar         1    LIG   0.0000
  13 C13          1.1345     5.9159     0.9520 C.ar         1    LIG   0.0000
  14 C14          1.4657     5.2834     2.1452 C.ar         1    LIG   0.0000
  15 N15          2.0849     4.0936     2.1385 N.ar         1    LIG   0.0000
  16 H           -0.6058    -0.1766     1.0037 H            1    LIG   0.0000
  17 H            0.6707    -0.7880     0.1891 H            1    LIG   0.0000
  18 H            0.6707    -0.7829     1.8221 H            1    LIG   0.0000
  19 H            2.5025    -1.0777     1.0073 H            1    LIG   0.0000
  20 H            6.0493    -1.4550     1.0099 H            1    LIG   0.0000
  21 H            6.1388     0.9229     1.0008 H            1    LIG   0.0000
  22 H            4.9808     3.0205     0.9927 H            1    LIG   0.0000
  23 H            2.3377     3.5957    -1.0896 H            1    LIG   0.0000
  24 H            1.2290     5.7247    -1.1167 H            1    LIG   0.0000
  25 H            0.6734     6.8032     0.9556 H            1    LIG   0.0000
  26 H            1.2401     5.7196     3.0163 H            1    LIG   0.0000
@<TRIPOS>BOND
   1        1        2 1
   2        2        3 1
   3        3        4 ar
   4        4        5 ar
   5        5        6 1
   6        5        7 ar
   7        7        8 ar
   8        8        9 ar
   9        9        3 ar
  10        9       10 1
  11       10       11 ar
  12       11       12 ar
  13       12       13 ar
  14       13       14 ar
  15       14       15 ar
  16       15       10 ar
  17        1       16 1
  18        1       17 1
  19        1       18 1
  20        4       19 1
  21        6       20 1
  22        7       21 1
  23        8       22 1
  24       11       23 1
  25       12       24 1
  26       13       25 1
  27       14       26 1

@<TRIPOS>MOLECULE

  26   27
SMALL
USER_CHARGES
@<TRIPOS>ATOM
   1 C1           0.3887    -0.2817     1.0040 C.3          1    LIG   0.0000
   2 O2           1.0000     1.0000     1.0000 O.3          1    LIG   0.0000
   3 C3           2.3502     1.0000     1.0000 C.ar         1    LIG   0.0000
   4 C4           3.0176    -0.2206     1.0043 C.ar         1    LIG   0.0000
   5 C5           4.4088    -0.2373     1.0045 C.ar         1    LIG   0.0000
   6 O6           5.0497    -1.4259     1.0097 O.3          1    LIG   0.0000
   7 C7           5.1391     0.9465     1.0005 C.ar         1    LIG   0.0000
   8 C8           4.4652     2.1637     0.9960 C.ar         1    LIG   0.0000
   9 C9           3.0738     2.1889     0.9963 C.ar         1    LIG   0.0000
  10 C10          2.4048     3.4746     0.9921 C.ar         1    LIG   0.0000
  11 C11          2.1006     4.0639     2.2146 C.ar         1    LIG   0.0000
  12 C12          1.4590     5.2972     2.2189 C.ar         1    LIG   0.0000
  13 C13          1.1342     5.9160     1.0165 C.ar         1    LIG   0.0000
  14 C14          1.4653     5.2758    -0.1725 C.ar         1    LIG   0.0000
  15 N15          2.0844     4.0859    -0.1582 N.ar         1    LIG   0.0000
  16 H           -0.6058    -0.1766     1.0037 H            1    LIG   0.0000
  17 H            0.6707    -0.7880     0.1891 H            1    LIG   0.0000
  18 H            0.6707    -0.7829     1.8221 H            1    LIG   0.0000
  19 H            2.5025    -1.0777     1.0073 H            1    LIG   0.0000
  20 H            6.0493    -1.4550     1.0099 H            1    LIG   0.0000
  21 H            6.1388     0.9229     1.0008 H            1    LIG   0.0000
  22 H            4.9808     3.0205     0.9927 H            1    LIG   0.0000
  23 H            2.3386     3.6096     3.0730 H            1    LIG   0.0000
  24 H            1.2312     5.7394     3.0865 H            1    LIG   0.0000
  25 H            0.6721     6.8027     1.0073 H            1    LIG   0.0000
  26 H            1.2398     5.7064    -1.0464 H            1    LIG   0.0000
@<TRIPOS>BOND
   1        1        2 1
   2        2        3 1
   3        3        4 ar
   4        4        5 ar
   5        5        6 1
   6        5        7 ar
   7        7        8 ar
   8        8        9 ar
   9        9        3 ar
  10        9       10 1
  11       10       11 ar
  12       11       12 ar
  13       12       13 ar
  14       13       14 ar
  15       14       15 ar
  16       15       10 ar
  17        1       16 1
  18        1       17 1
  19        1       18 1
  20        4       19 1
  21        6       20 1
  22        7       21 1
  23        8       22 1
  24       11       23 1
  25       12       24 1
  26       13       25 1
  27       14       26 1

@<TRIPOS>MOLECULE

  26   27
SMALL
USER_CHARGES
@<TRIPOS>ATOM
   1 C1           0.3887    -0.2817     1.0040 C.3          1    LIG   0.0000
   2 O2           1.0000     1.0000     1.0000 O.3          1    LIG   0.0000
   3 C3           2.3502     1.0000     1.0000 C.ar         1    LIG   0.0000
   4 C4           3.0176    -0.2206     1.0043 C.ar         1    LIG   0.0000
   5 C5           4.4088    -0.2373     1.0045 C.ar         1    LIG   0.0000
   6 O6           5.0497    -1.4259     1.0097 O.3          1    LIG   0.0000
   7 C7           5.1391     0.9465     1.0005 C.ar         1    LIG   0.0000
   8 C8           4.4652     2.1637     0.9960 C.ar         1    LIG   0.0000
   9 C9           3.0738     2.1889     0.9963 C.ar         1    LIG   0.0000
  10 C10          2.4048     3.4746     0.9921 C.ar         1    LIG   0.0000
  11 C11          1.1599     3.5724     1.6043 C.ar         1    LIG   0.0000
  12 C12          0.5118     4.8023     1.6047 C.ar         1    LIG   0.0000
  13 C13          1.1095     5.9031     1.0003 C.ar         1    LIG   0.0000
  14 C14          2.3557     5.7410     0.4052 C.ar         1    LIG   0.0000
  15 N15          2.9668     4.5469     0.4142 N.ar         1    LIG   0.0000
  16 H           -0.6058    -0.1766     1.0037 H            1    LIG   0.0000
  17 H            0.6707    -0.7880     0.1891 H            1    LIG   0.0000
  18 H            0.6707    -0.7829     1.8221 H            1    LIG   0.0000
  19 H            2.5025    -1.0777     1.0073 H            1    LIG   0.0000
  20 H            6.0493    -1.4550     1.0099 H            1    LIG   0.0000
  21 H            6.1388     0.9229     1.0008 H            1    LIG   0.0000
  22 H            4.9808     3.0205     0.9927 H            1    LIG   0.0000
  23 H            0.7394     2.7741     2.0355 H            1    LIG   0.0000
  24 H           -0.3839     4.8955     2.0394 H            1    LIG   0.0000
  25 H            0.6526     6.7925     0.9938 H            1    LIG   0.0000
  26 H            2.8005     6.5218    -0.0335 H            1    LIG   0.0000
@<TRIPOS>BOND
   1        1        2 1
   2        2        3 1
   3        3        4 ar
   4        4        5 ar
   5        5        6 1
   6        5        7 ar
   7        7        8 ar
   8        8        9 ar
   9        9        3 ar
  10        9       10 1
  11       10       11 ar
  12       11       12 ar
  13       12       13 ar
  14       13       14 ar
  15       14       15 ar
  16       15       10 ar
  17        1       16 1
  18        1       17 1
  19        1       18 1
  20        4       19 1
  21        6       20 1
  22        7       21 1
  23        8       22 1
  24       11       23 1
  25       12       24 1
  26       13       25 1
  27       14       26 1

@<TRIPOS>MOLECULE

  26   27
SMALL
USER_CHARGES
@<TRIPOS>ATOM
   1 C1           0.3887    -0.2817     1.0040 C.3          1    LIG   0.0000
   2 O2           1.0000     1.0000     1.0000 O.3          1    LIG   0.0000
   3 C3           2.3502     1.0000     1.0000 C.ar         1    LIG   0.0000
   4 C4           3.0176    -0.2206     1.0043 C.ar         1    LIG   0.0000
   5 C5           4.4088    -0.2373     1.0045 C.ar         1    LIG   0.0000
   6 O6           5.0497    -1.4259     1.0097 O.3          1    LIG   0.0000
   7 C7           5.1391     0.9465     1.0005 C.ar         1    LIG   0.0000
   8 C8           4.4652     2.1637     0.9960 C.ar         1    LIG   0.0000
   9 C9           3.0738     2.1889     0.9963 C.ar         1    LIG   0.0000
  10 C10          2.4048     3.4746     0.9921 C.ar         1    LIG   0.0000
  11 C11          1.1595     3.5683     0.3800 C.ar         1    LIG   0.0000
  12 C12          0.5113     4.7981     0.3720 C.ar         1    LIG   0.0000
  13 C13          1.1097     5.9030     0.9680 C.ar         1    LIG   0.0000
  14 C14          2.3558     5.7448     1.5641 C.ar         1    LIG   0.0000
  15 N15          2.9670     4.5507     1.5626 N.ar         1    LIG   0.0000
  16 H           -0.6058    -0.1766     1.0037 H            1    LIG   0.0000
  17 H            0.6707    -0.7880     0.1891 H            1    LIG   0.0000
  18 H            0.6707    -0.7829     1.8221 H            1    LIG   0.0000
  19 H            2.5025    -1.0777     1.0073 H            1    LIG   0.0000
  20 H            6.0493    -1.4550     1.0099 H            1    LIG   0.0000
  21 H            6.1388     0.9229     1.0008 H            1    LIG   0.0000
  22 H            4.9808     3.0205     0.9927 H            1    LIG   0.0000
  23 H            0.7389     2.7671    -0.0458 H            1    LIG   0.0000
  24 H           -0.3850     4.8882    -0.0622 H            1    LIG   0.0000
  25 H            0.6532     6.7928     0.9679 H            1    LIG   0.0000
  26 H            2.8006     6.5284     1.9979 H            1    LIG   0.0000
@<TRIPOS>BOND
   1        1        2 1
   2        2        3 1
   3        3        4 ar
   4        4        5 ar
   5        5        6 1
   6        5        7 ar
   7        7        8 ar
   8        8        9 ar
   9        9        3 ar
  10        9       10 1
  11       10       11 ar
  12       11       12 ar
  13       12       13 ar
  14       13       14 ar
  15       14       15 ar
  16       15       10 ar
  17        1       16 1
  18        1       17 1
  19        1       18 1
  20        4       19 1
  21        6       20 1
  22        7       21 1
  23        8       22 1
  24       11       23 1
  25       12       24 1
  26       13       25 1
  27       14       26 1

@<TRIPOS>MOLECULE

  26   27
SMALL
USER_CHARGES
@<TRIPOS>ATOM
   1 C1           0.3887    -0.2817     1.0040 C.3          1    LIG   0.0000
   2 O2           1.0000     1.0000     1.0000 O.3          1    LIG   0.0000
   3 C3           2.3502     1.0000     1.0000 C.ar         1    LIG   0.0000
   4 C4           3.0176    -0.2206     1.0043 C.ar         1    LIG   0.0000
   5 C5           4.4088    -0.2373     1.0045 C.ar         1    LIG   0.0000
   6 O6           5.0497    -1.4259     1.0097 O.3          1    LIG   0.0000
   7 C7           5.1391     0.9465     1.0005 C.ar         1    LIG   0.0000
   8 C8           4.4652     2.1637     0.9960 C.ar         1    LIG   0.0000
   9 C9           3.0738     2.1889     0.9963 C.ar         1    LIG   0.0000
  10 C10          2.4048     3.4746     0.9921 C.ar         1    LIG   0.0000
  11 C11          1.5570     3.7736    -0.0689 C.ar         1    LIG   0.0000
  12 C12          0.9113     5.0048    -0.0800 C.ar         1    LIG   0.0000
  13 C13          1.1202     5.9085     0.9563 C.ar         1    LIG   0.0000
  14 C14          1.9796     5.5504     1.9889 C.ar         1    LIG   0.0000
  15 N15          2.5942     4.3581     1.9836 N.ar         1    LIG   0.0000
  16 H           -0.6058    -0.1766     1.0037 H            1    LIG   0.0000
  17 H            0.6707    -0.7880     0.1891 H            1    LIG   0.0000
  18 H            0.6707    -0.7829     1.8221 H            1    LIG   0.0000
  19 H            2.5025    -1.0777     1.0073 H            1    LIG   0.0000
  20 H            6.0493    -1.4550     1.0099 H            1    LIG   0.0000
  21 H            6.1388     0.9229     1.0008 H            1    LIG   0.0000
  22 H            4.9808     3.0205     0.9927 H            1    LIG   0.0000
  23 H            1.4146     3.1163    -0.8090 H            1    LIG   0.0000
  24 H            0.2970     5.2406    -0.8330 H            1    LIG   0.0000
  25 H            0.6618     6.7972     0.9587 H            1    LIG   0.0000
  26 H            2.1410     6.1876     2.7426 H            1    LIG   0.0000
@<TRIPOS>BOND
   1        1        2 1
   2        2        3 1
   3        3        4 ar
   4        4        5 ar
   5        5        6 1
   6        5        7 ar
   7        7        8 ar
   8        8        9 ar
   9        9        3 ar
  10        9       10 1
  11       10       11 ar
  12       11       12 ar
  13       12       13 ar
  14       13       14 ar
  15       14       15 ar
  16       15       10 ar
  17        1       16 1
  18        1       17 1
  19        1       18 1
  20        4       19 1
  21        6       20 1
  22        7       21 1
  23        8       22 1
  24       11       23 1
  25       12       24 1
  26       13       25 1
  27       14       26 1

@<TRIPOS>MOLECULE

  26   27
SMALL
USER_CHARGES
@<TRIPOS>ATOM
   1 C1           0.3887    -0.2817     1.0040 C.3          1    LIG   0.0000
   2 O2           1.0000     1.0000     1.0000 O.3          1    LIG   0.0000
   3 C3           2.3502     1.0000     1.0000 C.ar         1    LIG   0.0000
   4 C4           3.0176    -0.2206     1.0043 C.ar         1    LIG   0.0000
   5 C5           4.4088    -0.2373     1.0045 C.ar         1    LIG   0.0000
   6 O6           5.0497    -1.4259     1.0097 O.3          1    LIG   0.0000
   7 C7           5.1391     0.9465     1.0005 C.ar         1    LIG   0.0000
   8 C8           4.4652     2.1637     0.9960 C.ar         1    LIG   0.0000
   9 C9           3.0738     2.1889     0.9963 C.ar         1    LIG   0.0000
  10 C10          2.4048     3.4746     0.9921 C.ar         1    LIG   0.0000
  11 C11          1.5575     3.7807     2.0516 C.ar         1    LIG   0.0000
  12 C12          0.9122     5.0121     2.0550 C.ar         1    LIG   0.0000
  13 C13          1.1199     5.9085     1.0121 C.ar         1    LIG   0.0000
  14 C14          1.9793     5.5438    -0.0182 C.ar         1    LIG   0.0000
  15 N15          2.5938     4.3515    -0.0054 N.ar         1    LIG   0.0000
  16 H           -0.6058    -0.1766     1.0037 H            1    LIG   0.0000
  17 H            0.6707    -0.7880     0.1891 H            1    LIG   0.0000
  18 H            0.6707    -0.7829     1.8221 H            1    LIG   0.0000
  19 H            2.5025    -1.0777     1.0073 H            1    LIG   0.0000
  20 H            6.0493    -1.4550     1.0099 H            1    LIG   0.0000
  21 H            6.1388     0.9229     1.0008 H            1    LIG   0.0000
  22 H            4.9808     3.0205     0.9927 H            1    LIG   0.0000
  23 H            1.4154     3.1283     2.7960 H            1    LIG   0.0000
  24 H            0.2989     5.2533     2.8071 H            1    LIG   0.0000
  25 H            0.6607     6.7968     1.0035 H            1    LIG   0.0000
  26 H            2.1408     6.1762    -0.7758 H            1    LIG   0.0000
@<TRIPOS>BOND
   1        1        2 1
   2        2        3 1
   3        3        4 ar
   4        4        5 ar
   5        5        6 1
   6        5        7 ar
   7        7        8 ar
   8        8        9 ar
   9        9        3 ar
  10        9       10 1
  11       10       11 ar
  12       11       12 ar
  13       12       13 ar
  14       13       14 ar
  15       14       15 ar
  16       15       10 ar
  17        1       16 1
  18        1       17 1
  19        1       18 1
  20        4       19 1
  21        6       20 1
  22        7       21 1
  23        8       22 1
  24       11       23 1
  25       12       24 1
  26       13       25 1
  27       14       26 1

@<TRIPOS>MOLECULE

  26   27
SMALL
USER_CHARGES
@<TRIPOS>ATOM
   1 C1           0.3887    -0.2817     1.0040 C.3          1    LIG   0.0000
   2 O2           1.0000     1.0000     1.0000 O.3          1    LIG   0.0000
   3 C3           2.3502     1.0000     1.0000 C.ar         1    LIG   0.0000
   4 C4           3.0176    -0.1485     0.5866 C.ar         1    LIG   0.0000
   5 C5           4.4088    -0.1643     0.5810 C.ar         1    LIG   0.0000
   6 O6           5.0497    -1.2829     0.1794 O.3          1    LIG   0.0000
   7 C7           5.1391     0.9495     0.9821 C.ar         1    LIG   0.0000
   8 C8           4.4652     2.0949     1.3943 C.ar         1    LIG   0.0000
   9 C9           3.0738     2.1185     1.4031 C.ar         1    LIG   0.0000
  10 C10          2.4048     3.3281     1.8390 C.ar         1    LIG   0.0000
  11 C11          1.2681     3.7378     1.1504 C.ar         1    LIG   0.0000
  12 C12          0.6205     4.8970     1.5625 C.ar         1    LIG   0.0000
  13 C13          1.1126     5.6212     2.6431 C.ar         1    LIG   0.0000
  14 C14          2.2531     5.1593     3.2904 C.ar         1    LIG   0.0000
  15 N15          2.8652     4.0387     2.8794 N.ar         1    LIG   0.0000
  16 H           -0.6058    -0.1766     1.0037 H            1    LIG   0.0000
  17 H            0.6707    -0.7880     0.1891 H            1    LIG   0.0000
  18 H            0.6707    -0.7829     1.8221 H            1    LIG   0.0000
  19 H            2.5025    -0.9549     0.2962 H            1    LIG   0.0000
  20 H            6.0493    -1.3104     0.1697 H            1    LIG   0.0000
  21 H            6.1388     0.9273     0.9744 H            1    LIG   0.0000
  22 H            4.9808     2.9012     1.6842 H            1    LIG   0.0000
  23 H            0.9235     3.2094     0.3746 H            1    LIG   0.0000
  24 H           -0.1988     5.2099     1.0822 H            1    LIG   0.0000
  25 H            0.6556     6.4568     2.9481 H            1    LIG   0.0000
  26 H            2.6204     5.6672     4.0696 H            1    LIG   0.0000
@<TRIPOS>BOND
   1        1        2 1
   2        2        3 1
   3        3        4 ar
   4        4        5 ar
   5        5        6 1
   6        5        7 ar
   7        7        8 ar
   8        8        9 ar
   9        9        3 ar
  10        9       10 1
  11       10       11 ar
  12       11       12 ar
  13       12       13 ar
  14       13       14 ar
  15       14       15 ar
  16       15       10 ar
  17        1       16 1
  18        1       17 1
  19        1       18 1
  20        4       19 1
  21        6       20 1
  22        7       21 1
  23        8       22 1
  24       11       23 1
  25       12       24 1
  26       13       25 1
  27       14       26 1

@<TRIPOS>MOLECULE

  26   27
SMALL
USER_CHARGES
@<TRIPOS>ATOM
   1 C1           0.3887    -0.2817     1.0040 C.3          1    LIG   0.0000
   2 O2           1.0000     1.0000     1.0000 O.3          1    LIG   0.0000
   3 C3           2.3502     1.0000     1.0000 C.ar         1    LIG   0.0000
   4 C4           3.0176    -0.1485     0.5866 C.ar         1    LIG   0.0000
   5 C5           4.4088    -0.1643     0.5810 C.ar         1    LIG   0.0000
   6 O6           5.0497    -1.2829     0.1794 O.3          1    LIG   0.0000
   7 C7           5.1391     0.9495     0.9821 C.ar         1    LIG   0.0000
   8 C8           4.4652     2.0949     1.3943 C.ar         1    LIG   0.0000
   9 C9           3.0738     2.1185     1.4031 C.ar         1    LIG   0.0000
  10 C10          2.4048     3.3281     1.8390 C.ar         1    LIG   0.0000
  11 C11          1.9120     3.3776     3.1385 C.ar         1    LIG   0.0000
  12 C12          1.2691     4.5345     3.5641 C.ar         1    LIG   0.0000
  13 C13          1.1292     5.6116     2.6955 C.ar         1    LIG   0.0000
  14 C14          1.6438     5.5004     1.4086 C.ar         1    LIG   0.0000
  15 N15          2.2613     4.3767     1.0147 N.ar         1    LIG   0.0000
  16 H           -0.6058    -0.1766     1.0037 H            1    LIG   0.0000
  17 H            0.6707    -0.7880     0.1891 H            1    LIG   0.0000
  18 H            0.6707    -0.7829     1.8221 H            1    LIG   0.0000
  19 H            2.5025    -0.9549     0.2962 H            1    LIG   0.0000
  20 H            6.0493    -1.3104     0.1697 H            1    LIG   0.0000
  21 H            6.1388     0.9273     0.9744 H            1    LIG   0.0000
  22 H            4.9808     2.9012     1.6842 H            1    LIG   0.0000
  23 H            2.0180     2.5969     3.7543 H            1    LIG   0.0000
  24 H            0.9074     4.5922     4.4946 H            1    LIG   0.0000
  25 H            0.6681     6.4485     2.9903 H            1    LIG   0.0000
  26 H            1.5528     6.2653     0.7709 H            1    LIG   0.0000
@<TRIPOS>BOND
   1        1        2 1
   2        2        3 1
   3        3        4 ar
   4        4        5 ar
   5        5        6 1
   6        5        7 ar
   7        7        8 ar
   8        8        9 ar
   9        9        3 ar
  10        9       10 1
  11       10       11 ar
  12       11       12 ar
  13       12       13 ar
  14       13       14 ar
  15       14       15 ar
  16       15       10 ar
  17        1       16 1
  18        1       17 1
  19        1       18 1
  20        4       19 1
  21        6       20 1
  22        7       21 1
  23        8       22 1
  24       11       23 1
  25       12       24 1
  26       13       25 1
  27       14       26 1

@<TRIPOS>MOLECULE

  26   27
SMALL
USER_CHARGES
@<TRIPOS>ATOM
   1 C1           0.3887    -0.2817     1.0040 C.3          1    LIG   0.0000
   2 O2           1.0000     1.0000     1.0000 O.3          1    LIG   0.0000
   3 C3           2.3502     1.0000     1.0000 C.ar         1    LIG   0.0000
   4 C4           3.0176    -0.1455     1.4216 C.ar         1    LIG   0.0000
   5 C5           4.4088    -0.1612     1.4274 C.ar         1    LIG   0.0000
   6 O6           5.0497    -1.2763     1.8388 O.3          1    LIG   0.0000
   7 C7           5.1391     0.9499     1.0187 C.ar         1    LIG   0.0000
   8 C8           4.4652     2.0922     0.5983 C.ar         1    LIG   0.0000
   9 C9           3.0738     2.1159     0.5898 C.ar         1    LIG   0.0000
  10 C10          2.4048     3.3227     0.1462 C.ar         1    LIG   0.0000
  11 C11          1.9113     3.3636    -1.1534 C.ar         1    LIG   0.0000
  12 C12          1.2681     4.5176    -1.5863 C.ar         1    LIG   0.0000
  13 C13          1.1295     5.6008    -0.7251 C.ar         1    LIG   0.0000
  14 C14          1.6442     5.4979     0.5625 C.ar         1    LIG   0.0000
  15 N15          2.2618     4.3767     0.9636 N.ar         1    LIG   0.0000
  16 H           -0.6058    -0.1766     1.0037 H            1    LIG   0.0000
  17 H            0.6707    -0.7880     0.1891 H            1    LIG   0.0000
  18 H            0.6707    -0.7829     1.8221 H            1    LIG   0.0000
  19 H            2.5025    -0.9499     1.7175 H            1    LIG   0.0000
  20 H            6.0493    -1.3036     1.8490 H            1    LIG   0.0000
  21 H            6.1388     0.9278     1.0271 H            1    LIG   0.0000
  22 H            4.9808     2.8962     0.3020 H            1    LIG   0.0000
  23 H            2.0171     2.5789    -1.7641 H            1    LIG   0.0000
  24 H            0.9052     4.5688    -2.5167 H            1    LIG   0.0000
  25 H            0.6694     6.4362    -1.0256 H            1    LIG   0.0000
  26 H            1.5530     6.2668     1.1953 H            1    LIG   0.0000
@<TRIPOS>BOND
   1        1        2 1
   2        2        3 1
   3        3        4 ar
   4        4        5 ar
   5        5        6 1
   6        5        7 ar
   7        7        8 ar
   8        8        9 ar
   9        9        3 ar
  10        9       10 1
  11       10       11 ar
  12       11       12 ar
  13       12       13 ar
  14       13       14 ar
  15       14       15 ar
  16       15       10 ar
  17        1       16 1
  18        1       17 1
  19        1       18 1
  20        4       19 1
  21        6       20 1
  22        7       21 1
  23        8       22 1
  24       11       23 1
  25       12       24 1
  26       13       25 1
  27       14       26 1

@<TRIPOS>MOLECULE

  26   27
SMALL
USER_CHARGES
@<TRIPOS>ATOM
   1 C1           0.3887    -0.2817     1.0040 C.3          1    LIG   0.0000
   2 O2           1.0000     1.0000     1.0000 O.3          1    LIG   0.0000
   3 C3           2.3502     1.0000     1.0000 C.ar         1    LIG   0.0000
   4 C4           3.0176    -0.1455     1.4216 C.ar         1    LIG   0.0000
   5 C5           4.4088    -0.1612     1.4274 C.ar         1    LIG   0.0000
   6 O6           5.0497    -1.2763     1.8388 O.3          1    LIG   0.0000
   7 C7           5.1391     0.9499     1.0187 C.ar         1    LIG   0.0000
   8 C8           4.4652     2.0922     0.5983 C.ar         1    LIG   0.0000
   9 C9           3.0738     2.1159     0.5898 C.ar         1    LIG   0.0000
  10 C10          2.4048     3.3227     0.1462 C.ar         1    LIG   0.0000
  11 C11          1.2685     3.7373     0.8326 C.ar         1    LIG   0.0000
  12 C12          0.6212     4.8940     0.4133 C.ar         1    LIG   0.0000
  13 C13          1.1123     5.6104    -0.6729 C.ar         1    LIG   0.0000
  14 C14          2.2529     5.1443    -1.3172 C.ar         1    LIG   0.0000
  15 N15          2.8649     4.0263    -0.8991 N.ar         1    LIG   0.0000
  16 H           -0.6058    -0.1766     1.0037 H            1    LIG   0.0000
  17 H            0.6707    -0.7880     0.1891 H            1    LIG   0.0000
  18 H            0.6707    -0.7829     1.8221 H            1    LIG   0.0000
  19 H            2.5025    -0.9499     1.7175 H            1    LIG   0.0000
  20 H            6.0493    -1.3036     1.8490 H            1    LIG   0.0000
  21 H            6.1388     0.9278     1.0271 H            1    LIG   0.0000
  22 H            4.9808     2.8962     0.3020 H            1    LIG   0.0000
  23 H            0.9241     3.2140     1.6120 H            1    LIG   0.0000
  24 H           -0.1974     5.2107     0.8924 H            1    LIG   0.0000
  25 H            0.6548     6.4434    -0.9839 H            1    LIG   0.0000
  26 H            2.6203     5.6473    -2.0996 H            1    LIG   0.0000
@<TRIPOS>BOND
   1        1        2 1
   2        2        3 1
   3        3        4 ar
   4        4        5 ar
   5        5        6 1
   6        5        7 ar
   7        7        8 ar
   8        8        9 ar
   9        9        3 ar
  10        9       10 1
  11       10       11 ar
  12       11       12 ar
  13       12       13 ar
  14       13       14 ar
  15       14       15 ar
  16       15       10 ar
  17        1       16 1
  18        1       17 1
  19        1       18 1
  20        4       19 1
  21        6       20 1
  22        7       21 1
  23        8       22 1
  24       11       23 1
  25       12       24 1
  26       13       25 1
  27       14       26 1

