@<TRIPOS>MOLECULE
*****
 26 27 0 0 0
SMALL
USER_CHARGES

@<TRIPOS>ATOM
      1 C1          0.3887   -0.2817    1.0040 C.3     1  LIG1        0.0000
      2 O2          1.0000    1.0000    1.0000 O.3     1  LIG1        0.0000
      3 C3          2.3502    1.0000    1.0000 C.ar    1  LIG1        0.0000
      4 C4          3.0176   -0.1455    1.4216 C.ar    1  LIG1        0.0000
      5 C5          4.4088   -0.1612    1.4274 C.ar    1  LIG1        0.0000
      6 O6          5.0497   -1.2763    1.8388 O.3     1  LIG1        0.0000
      7 C7          5.1391    0.9499    1.0187 C.ar    1  LIG1        0.0000
      8 C8          4.4652    2.0922    0.5983 C.ar    1  LIG1        0.0000
      9 C9          3.0738    2.1159    0.5898 C.ar    1  LIG1        0.0000
     10 C10         2.4048    3.3227    0.1462 C.ar    1  LIG1        0.0000
     11 C11         1.2685    3.7373    0.8326 C.ar    1  LIG1        0.0000
     12 C12         0.6212    4.8940    0.4133 C.ar    1  LIG1        0.0000
     13 C13         1.1123    5.6104   -0.6729 C.ar    1  LIG1        0.0000
     14 C14         2.2529    5.1443   -1.3172 C.ar    1  LIG1        0.0000
     15 N15         2.8649    4.0263   -0.8991 N.ar    1  LIG1        0.0000
     16 H          -0.6058   -0.1766    1.0037 H       1  LIG1        0.0000
     17 H           0.6707   -0.7880    0.1891 H       1  LIG1        0.0000
     18 H           0.6707   -0.7829    1.8221 H       1  LIG1        0.0000
     19 H           2.5025   -0.9499    1.7175 H       1  LIG1        0.0000
     20 H           6.0493   -1.3036    1.8490 H       1  LIG1        0.0000
     21 H           6.1388    0.9278    1.0271 H       1  LIG1        0.0000
     22 H           4.9808    2.8962    0.3020 H       1  LIG1        0.0000
     23 H           0.9241    3.2140    1.6120 H       1  LIG1        0.0000
     24 H          -0.1974    5.2107    0.8924 H       1  LIG1        0.0000
     25 H           0.6548    6.4434   -0.9839 H       1  LIG1        0.0000
     26 H           2.6203    5.6473   -2.0996 H       1  LIG1        0.0000
@<TRIPOS>BOND
     1     1     2    1
     2     2     3    1
     3     3     4   ar
     4     4     5   ar
     5     5     6    1
     6     5     7   ar
     7     7     8   ar
     8     8     9   ar
     9     9     3   ar
    10     9    10    1
    11    10    11   ar
    12    11    12   ar
    13    12    13   ar
    14    13    14   ar
    15    14    15   ar
    16    15    10   ar
    17     1    16    1
    18     1    17    1
    19     1    18    1
    20     4    19    1
    21     6    20    1
    22     7    21    1
    23     8    22    1
    24    11    23    1
    25    12    24    1
    26    13    25    1
    27    14    26    1
