@<TRIPOS>MOLECULE
*****
 26 27 0 0 0
SMALL
USER_CHARGES

@<TRIPOS>ATOM
      1 C1          0.3887   -0.2817    1.0040 C.3     1  LIG1        0.0000
      2 O2          1.0000    1.0000    1.0000 O.3     1  LIG1        0.0000
      3 C3          2.3502    1.0000    1.0000 C.ar    1  LIG1        0.0000
      4 C4          3.0176   -0.2206    1.0043 C.ar    1  LIG1        0.0000
      5 C5          4.4088   -0.2373    1.0045 C.ar    1  LIG1        0.0000
      6 O6          5.0497   -1.4259    1.0097 O.3     1  LIG1        0.0000
      7 C7          5.1391    0.9465    1.0005 C.ar    1  LIG1        0.0000
      8 C8          4.4652    2.1637    0.9960 C.ar    1  LIG1        0.0000
      9 C9          3.0738    2.1889    0.9963 C.ar    1  LIG1        0.0000
     10 C10         2.4048    3.4746    0.9921 C.ar    1  LIG1        0.0000
     11 C11         3.1863    4.6249    0.9880 C.ar    1  LIG1        0.0000
     12 C12         2.5520    5.8620    0.9839 C.ar    1  LIG1        0.0000
     13 C13         1.1629    5.9308    0.9844 C.ar    1  LIG1        0.0000
     14 C14         0.4375    4.7447    0.9882 C.ar    1  LIG1        0.0000
     15 N15         1.0660    3.5596    0.9921 N.ar    1  LIG1        0.0000
     16 H          -0.6058   -0.1766    1.0037 H       1  LIG1        0.0000
     17 H           0.6707   -0.7880    0.1891 H       1  LIG1        0.0000
     18 H           0.6707   -0.7829    1.8221 H       1  LIG1        0.0000
     19 H           2.5025   -1.0777    1.0073 H       1  LIG1        0.0000
     20 H           6.0493   -1.4550    1.0099 H       1  LIG1        0.0000
     21 H           6.1388    0.9229    1.0008 H       1  LIG1        0.0000
     22 H           4.9808    3.0205    0.9927 H       1  LIG1        0.0000
     23 H           4.1845    4.5635    0.9881 H       1  LIG1        0.0000
     24 H           3.0943    6.7022    0.9805 H       1  LIG1        0.0000
     25 H           0.6957    6.8149    0.9821 H       1  LIG1        0.0000
     26 H          -0.5620    4.7753    0.9881 H       1  LIG1        0.0000
@<TRIPOS>BOND
     1     1     2    1
     2     2     3    1
     3     3     4   ar
     4     4     5   ar
     5     5     6    1
     6     5     7   ar
     7     7     8   ar
     8     8     9   ar
     9     9     3   ar
    10     9    10    1
    11    10    11   ar
    12    11    12   ar
    13    12    13   ar
    14    13    14   ar
    15    14    15   ar
    16    15    10   ar
    17     1    16    1
    18     1    17    1
    19     1    18    1
    20     4    19    1
    21     6    20    1
    22     7    21    1
    23     8    22    1
    24    11    23    1
    25    12    24    1
    26    13    25    1
    27    14    26    1
