@<TRIPOS>MOLECULE

  66   71
SMALL
USER_CHARGES
@<TRIPOS>ATOM
   1 C1          -0.5285    -2.6370    -5.0534 C.3          1    LIG   0.0000
   2 C2          -0.7739    -3.3361    -3.7270 C.2          1    LIG   0.0000
   3 C3          -1.1066    -4.6670    -3.7696 C.2          1    LIG   0.0000
   4 C4          -1.3574    -5.3751    -2.5642 C.2          1    LIG   0.0000
   5 C5          -1.2494    -4.6898    -1.3833 C.2          1    LIG   0.0000
   6 N6          -0.9132    -3.3556    -1.3407 N.pl3        1    LIG   0.0000
   7 C7          -0.8282    -2.7200    -0.1227 C.2          1    LIG   0.0000
   8 O8          -1.0264    -3.2968     0.9415 O.2          1    LIG   0.0000
   9 C9          -0.5302    -1.3185    -0.1333 C.2          1    LIG   0.0000
  10 C10         -0.2903    -0.6008    -1.2836 C.2          1    LIG   0.0000
  11 N11         -0.3721    -1.3434    -2.4428 N.2          1    LIG   0.0000
  12 C12         -0.6765    -2.6372    -2.4896 C.2          1    LIG   0.0000
  13 N13          0.0030     0.7699    -1.2753 N.pl3        1    LIG   0.0000
  14 C14          0.3530     1.6104    -2.4329 C.3          1    LIG   0.0000
  15 C15         -0.9016     2.0293    -3.1893 C.3          1    LIG   0.0000
  16 C16         -2.1625     2.1392    -2.3358 C.3          1    LIG   0.0000
  17 C17         -1.9460     2.8248    -0.9928 C.3          1    LIG   0.0000
  18 C18         -1.5550     1.7733     0.0357 C.3          1    LIG   0.0000
  19 C19         -0.0714     1.4740     0.0105 C.3          1    LIG   0.0000
  20 C20          0.4350     0.6458     1.1862 C.3          1    LIG   0.0000
  21 C21         -0.4886    -0.5683     1.1952 C.3          1    LIG   0.0000
  22 C22          0.0502     1.3236     2.4977 C.2          1    LIG   0.0000
  23 O23         -1.0997     1.5686     2.8604 O.2          1    LIG   0.0000
  24 N24          1.0786     1.6664     3.3865 N.am         1    LIG   0.0000
  25 C25          2.4270     1.3781     3.1314 C.2          1    LIG   0.0000
  26 O26          3.2637     1.7143     3.9520 O.2          1    LIG   0.0000
  27 N27          2.8317     0.7110     1.9652 N.am         1    LIG   0.0000
  28 C28          4.2604     0.4152     1.7756 C.3          1    LIG   0.0000
  29 C29          4.9257     1.5732     1.0497 C.3          1    LIG   0.0000
  30 C30          6.4020     1.2675     0.8538 C.ar         1    LIG   0.0000
  31 C31          7.3192     1.6514     1.8266 C.ar         1    LIG   0.0000
  32 C32          8.6680     1.3684     1.6389 C.ar         1    LIG   0.0000
  33 C33          9.0873     0.7078     0.4881 C.ar         1    LIG   0.0000
  34 C34          8.1630     0.3273    -0.4793 C.ar         1    LIG   0.0000
  35 C35          6.8121     0.6071    -0.2998 C.ar         1    LIG   0.0000
  36 C36          1.9145     0.3149     0.9815 C.2          1    LIG   0.0000
  37 O37          2.3647    -0.2842     0.0136 O.2          1    LIG   0.0000
  38 H            0.4433     2.3296    -0.0444 H            1    LIG   0.0000
  39 H           -0.6433    -3.2909    -5.8012 H            1    LIG   0.0000
  40 H           -1.1827    -1.8885    -5.1618 H            1    LIG   0.0000
  41 H            0.4021    -2.2713    -5.0704 H            1    LIG   0.0000
  42 H           -1.1725    -5.1381    -4.6493 H            1    LIG   0.0000
  43 H           -1.6052    -6.3438    -2.5773 H            1    LIG   0.0000
  44 H           -1.4200    -5.1738    -0.5251 H            1    LIG   0.0000
  45 H            0.9495     1.0931    -3.0464 H            1    LIG   0.0000
  46 H            0.8322     2.4277    -2.1128 H            1    LIG   0.0000
  47 H           -1.0709     1.3542    -3.9074 H            1    LIG   0.0000
  48 H           -0.7296     2.9223    -3.6051 H            1    LIG   0.0000
  49 H           -2.5078     1.2164    -2.1653 H            1    LIG   0.0000
  50 H           -2.8443     2.6609    -2.8485 H            1    LIG   0.0000
  51 H           -1.2155     3.5027    -1.0752 H            1    LIG   0.0000
  52 H           -2.7904     3.2777    -0.7065 H            1    LIG   0.0000
  53 H           -1.8012     2.1059     0.9461 H            1    LIG   0.0000
  54 H           -2.0571     0.9305    -0.1582 H            1    LIG   0.0000
  55 H           -0.1734    -1.1992     1.9041 H            1    LIG   0.0000
  56 H           -1.4144    -0.2588     1.4119 H            1    LIG   0.0000
  57 H            0.8410     2.1356     4.2370 H            1    LIG   0.0000
  58 H            4.3590    -0.4190     1.2330 H            1    LIG   0.0000
  59 H            4.6953     0.2865     2.6668 H            1    LIG   0.0000
  60 H            4.4908     1.7019     0.1585 H            1    LIG   0.0000
  61 H            4.8271     2.4074     1.5923 H            1    LIG   0.0000
  62 H            7.0122     2.1257     2.6517 H            1    LIG   0.0000
  63 H            9.3366     1.6397     2.3312 H            1    LIG   0.0000
  64 H           10.0577     0.5056     0.3560 H            1    LIG   0.0000
  65 H            8.4697    -0.1476    -1.3042 H            1    LIG   0.0000
  66 H            6.1433     0.3366    -0.9923 H            1    LIG   0.0000
@<TRIPOS>BOND
   1        1        2 1
   2        2        3 2
   3        3        4 1
   4        4        5 2
   5        5        6 1
   6        6        7 1
   7        7        8 2
   8        7        9 1
   9        9       10 2
  10       10       11 1
  11       11       12 2
  12       12        2 1
  13       12        6 1
  14       10       13 1
  15       13       14 1
  16       14       15 1
  17       15       16 1
  18       16       17 1
  19       17       18 1
  20       18       19 1
  21       19       13 1
  22       19       20 1
  23       20       21 1
  24       21        9 1
  25       20       22 1
  26       22       23 2
  27       22       24 am
  28       24       25 am
  29       25       26 2
  30       25       27 am
  31       27       28 1
  32       28       29 1
  33       29       30 1
  34       30       31 ar
  35       31       32 ar
  36       32       33 ar
  37       33       34 ar
  38       34       35 ar
  39       35       30 ar
  40       27       36 am
  41       36       20 1
  42       36       37 2
  43       19       38 1
  44        1       39 1
  45        1       40 1
  46        1       41 1
  47        3       42 1
  48        4       43 1
  49        5       44 1
  50       14       45 1
  51       14       46 1
  52       15       47 1
  53       15       48 1
  54       16       49 1
  55       16       50 1
  56       17       51 1
  57       17       52 1
  58       18       53 1
  59       18       54 1
  60       21       55 1
  61       21       56 1
  62       24       57 1
  63       28       58 1
  64       28       59 1
  65       29       60 1
  66       29       61 1
  67       31       62 1
  68       32       63 1
  69       33       64 1
  70       34       65 1
  71       35       66 1

@<TRIPOS>MOLECULE

  66   71
SMALL
USER_CHARGES
@<TRIPOS>ATOM
   1 C1          -0.5285    -2.6370    -5.0534 C.3          1    LIG   0.0000
   2 C2          -0.7739    -3.3361    -3.7270 C.2          1    LIG   0.0000
   3 C3          -1.1066    -4.6670    -3.7696 C.2          1    LIG   0.0000
   4 C4          -1.3574    -5.3751    -2.5642 C.2          1    LIG   0.0000
   5 C5          -1.2494    -4.6898    -1.3833 C.2          1    LIG   0.0000
   6 N6          -0.9132    -3.3556    -1.3407 N.pl3        1    LIG   0.0000
   7 C7          -0.8282    -2.7200    -0.1227 C.2          1    LIG   0.0000
   8 O8          -1.0264    -3.2968     0.9415 O.2          1    LIG   0.0000
   9 C9          -0.5302    -1.3185    -0.1333 C.2          1    LIG   0.0000
  10 C10         -0.2903    -0.6008    -1.2836 C.2          1    LIG   0.0000
  11 N11         -0.3721    -1.3434    -2.4428 N.2          1    LIG   0.0000
  12 C12         -0.6765    -2.6372    -2.4896 C.2          1    LIG   0.0000
  13 N13          0.0030     0.7699    -1.2753 N.pl3        1    LIG   0.0000
  14 C14          0.3530     1.6104    -2.4329 C.3          1    LIG   0.0000
  15 C15         -0.9016     2.0293    -3.1893 C.3          1    LIG   0.0000
  16 C16         -2.1625     2.1392    -2.3358 C.3          1    LIG   0.0000
  17 C17         -1.9460     2.8248    -0.9928 C.3          1    LIG   0.0000
  18 C18         -1.5550     1.7733     0.0357 C.3          1    LIG   0.0000
  19 C19         -0.0714     1.4740     0.0105 C.3          1    LIG   0.0000
  20 C20          0.4350     0.6458     1.1862 C.3          1    LIG   0.0000
  21 C21         -0.4886    -0.5683     1.1952 C.3          1    LIG   0.0000
  22 C22          0.0502     1.3236     2.4977 C.2          1    LIG   0.0000
  23 O23         -1.0997     1.5686     2.8604 O.2          1    LIG   0.0000
  24 N24          1.0786     1.6664     3.3865 N.am         1    LIG   0.0000
  25 C25          2.4270     1.3781     3.1314 C.2          1    LIG   0.0000
  26 O26          3.2637     1.7143     3.9520 O.2          1    LIG   0.0000
  27 N27          2.8317     0.7110     1.9652 N.am         1    LIG   0.0000
  28 C28          4.2604     0.4152     1.7756 C.3          1    LIG   0.0000
  29 C29          4.6954     0.8804     0.3955 C.3          1    LIG   0.0000
  30 C30          5.8246    -0.0057    -0.1055 C.ar         1    LIG   0.0000
  31 C31          7.1436     0.3370     0.1731 C.ar         1    LIG   0.0000
  32 C32          8.1705    -0.4790    -0.2897 C.ar         1    LIG   0.0000
  33 C33          7.8734    -1.6241    -1.0224 C.ar         1    LIG   0.0000
  34 C34          6.5514    -1.9593    -1.2962 C.ar         1    LIG   0.0000
  35 C35          5.5183    -1.1482    -0.8375 C.ar         1    LIG   0.0000
  36 C36          1.9145     0.3149     0.9815 C.2          1    LIG   0.0000
  37 O37          2.3647    -0.2842     0.0136 O.2          1    LIG   0.0000
  38 H            0.4433     2.3296    -0.0444 H            1    LIG   0.0000
  39 H           -0.6433    -3.2909    -5.8012 H            1    LIG   0.0000
  40 H           -1.1827    -1.8885    -5.1618 H            1    LIG   0.0000
  41 H            0.4021    -2.2713    -5.0704 H            1    LIG   0.0000
  42 H           -1.1725    -5.1381    -4.6493 H            1    LIG   0.0000
  43 H           -1.6052    -6.3438    -2.5773 H            1    LIG   0.0000
  44 H           -1.4200    -5.1738    -0.5251 H            1    LIG   0.0000
  45 H            0.9495     1.0931    -3.0464 H            1    LIG   0.0000
  46 H            0.8322     2.4277    -2.1128 H            1    LIG   0.0000
  47 H           -1.0709     1.3542    -3.9074 H            1    LIG   0.0000
  48 H           -0.7296     2.9223    -3.6051 H            1    LIG   0.0000
  49 H           -2.5078     1.2164    -2.1653 H            1    LIG   0.0000
  50 H           -2.8443     2.6609    -2.8485 H            1    LIG   0.0000
  51 H           -1.2155     3.5027    -1.0752 H            1    LIG   0.0000
  52 H           -2.7904     3.2777    -0.7065 H            1    LIG   0.0000
  53 H           -1.8012     2.1059     0.9461 H            1    LIG   0.0000
  54 H           -2.0571     0.9305    -0.1582 H            1    LIG   0.0000
  55 H           -0.1734    -1.1992     1.9041 H            1    LIG   0.0000
  56 H           -1.4144    -0.2588     1.4119 H            1    LIG   0.0000
  57 H            0.8410     2.1356     4.2370 H            1    LIG   0.0000
  58 H            4.4106    -0.5701     1.8579 H            1    LIG   0.0000
  59 H            4.7952     0.8932     2.4724 H            1    LIG   0.0000
  60 H            3.9215     0.8226    -0.2351 H            1    LIG   0.0000
  61 H            5.0128     1.8273     0.4476 H            1    LIG   0.0000
  62 H            7.3513     1.1609     0.7004 H            1    LIG   0.0000
  63 H            9.1226    -0.2427    -0.0958 H            1    LIG   0.0000
  64 H            8.6139    -2.2089    -1.3538 H            1    LIG   0.0000
  65 H            6.3435    -2.7836    -1.8228 H            1    LIG   0.0000
  66 H            4.5661    -1.3839    -1.0320 H            1    LIG   0.0000
@<TRIPOS>BOND
   1        1        2 1
   2        2        3 2
   3        3        4 1
   4        4        5 2
   5        5        6 1
   6        6        7 1
   7        7        8 2
   8        7        9 1
   9        9       10 2
  10       10       11 1
  11       11       12 2
  12       12        2 1
  13       12        6 1
  14       10       13 1
  15       13       14 1
  16       14       15 1
  17       15       16 1
  18       16       17 1
  19       17       18 1
  20       18       19 1
  21       19       13 1
  22       19       20 1
  23       20       21 1
  24       21        9 1
  25       20       22 1
  26       22       23 2
  27       22       24 am
  28       24       25 am
  29       25       26 2
  30       25       27 am
  31       27       28 1
  32       28       29 1
  33       29       30 1
  34       30       31 ar
  35       31       32 ar
  36       32       33 ar
  37       33       34 ar
  38       34       35 ar
  39       35       30 ar
  40       27       36 am
  41       36       20 1
  42       36       37 2
  43       19       38 1
  44        1       39 1
  45        1       40 1
  46        1       41 1
  47        3       42 1
  48        4       43 1
  49        5       44 1
  50       14       45 1
  51       14       46 1
  52       15       47 1
  53       15       48 1
  54       16       49 1
  55       16       50 1
  56       17       51 1
  57       17       52 1
  58       18       53 1
  59       18       54 1
  60       21       55 1
  61       21       56 1
  62       24       57 1
  63       28       58 1
  64       28       59 1
  65       29       60 1
  66       29       61 1
  67       31       62 1
  68       32       63 1
  69       33       64 1
  70       34       65 1
  71       35       66 1

@<TRIPOS>MOLECULE

  66   71
SMALL
USER_CHARGES
@<TRIPOS>ATOM
   1 C1          -0.5285    -2.6370    -5.0534 C.3          1    LIG   0.0000
   2 C2          -0.7739    -3.3361    -3.7270 C.2          1    LIG   0.0000
   3 C3          -1.1066    -4.6670    -3.7696 C.2          1    LIG   0.0000
   4 C4          -1.3574    -5.3751    -2.5642 C.2          1    LIG   0.0000
   5 C5          -1.2494    -4.6898    -1.3833 C.2          1    LIG   0.0000
   6 N6          -0.9132    -3.3556    -1.3407 N.pl3        1    LIG   0.0000
   7 C7          -0.8282    -2.7200    -0.1227 C.2          1    LIG   0.0000
   8 O8          -1.0264    -3.2968     0.9415 O.2          1    LIG   0.0000
   9 C9          -0.5302    -1.3185    -0.1333 C.2          1    LIG   0.0000
  10 C10         -0.2903    -0.6008    -1.2836 C.2          1    LIG   0.0000
  11 N11         -0.3721    -1.3434    -2.4428 N.2          1    LIG   0.0000
  12 C12         -0.6765    -2.6372    -2.4896 C.2          1    LIG   0.0000
  13 N13          0.0030     0.7699    -1.2753 N.pl3        1    LIG   0.0000
  14 C14          0.3530     1.6104    -2.4329 C.3          1    LIG   0.0000
  15 C15         -0.9016     2.0293    -3.1893 C.3          1    LIG   0.0000
  16 C16         -2.1625     2.1392    -2.3358 C.3          1    LIG   0.0000
  17 C17         -1.9460     2.8248    -0.9928 C.3          1    LIG   0.0000
  18 C18         -1.5550     1.7733     0.0357 C.3          1    LIG   0.0000
  19 C19         -0.0714     1.4740     0.0105 C.3          1    LIG   0.0000
  20 C20          0.4350     0.6458     1.1862 C.3          1    LIG   0.0000
  21 C21         -0.4886    -0.5683     1.1952 C.3          1    LIG   0.0000
  22 C22          0.0502     1.3236     2.4977 C.2          1    LIG   0.0000
  23 O23         -1.0997     1.5686     2.8604 O.2          1    LIG   0.0000
  24 N24          1.0786     1.6664     3.3865 N.am         1    LIG   0.0000
  25 C25          2.4270     1.3781     3.1314 C.2          1    LIG   0.0000
  26 O26          3.2637     1.7143     3.9520 O.2          1    LIG   0.0000
  27 N27          2.8317     0.7110     1.9652 N.am         1    LIG   0.0000
  28 C28          4.2604     0.4152     1.7756 C.3          1    LIG   0.0000
  29 C29          4.5792    -0.9466     2.3709 C.3          1    LIG   0.0000
  30 C30          6.0555    -1.2523     2.1750 C.ar         1    LIG   0.0000
  31 C31          6.4747    -1.9129     1.0249 C.ar         1    LIG   0.0000
  32 C32          7.8272    -2.1892     0.8542 C.ar         1    LIG   0.0000
  33 C33          8.7446    -1.8054     1.8276 C.ar         1    LIG   0.0000
  34 C34          8.3165    -1.1449     2.9745 C.ar         1    LIG   0.0000
  35 C35          6.9654    -0.8653     3.1535 C.ar         1    LIG   0.0000
  36 C36          1.9145     0.3149     0.9815 C.2          1    LIG   0.0000
  37 O37          2.3647    -0.2842     0.0136 O.2          1    LIG   0.0000
  38 H            0.4433     2.3296    -0.0444 H            1    LIG   0.0000
  39 H           -0.6433    -3.2909    -5.8012 H            1    LIG   0.0000
  40 H           -1.1827    -1.8885    -5.1618 H            1    LIG   0.0000
  41 H            0.4021    -2.2713    -5.0704 H            1    LIG   0.0000
  42 H           -1.1725    -5.1381    -4.6493 H            1    LIG   0.0000
  43 H           -1.6052    -6.3438    -2.5773 H            1    LIG   0.0000
  44 H           -1.4200    -5.1738    -0.5251 H            1    LIG   0.0000
  45 H            0.9495     1.0931    -3.0464 H            1    LIG   0.0000
  46 H            0.8322     2.4277    -2.1128 H            1    LIG   0.0000
  47 H           -1.0709     1.3542    -3.9074 H            1    LIG   0.0000
  48 H           -0.7296     2.9223    -3.6051 H            1    LIG   0.0000
  49 H           -2.5078     1.2164    -2.1653 H            1    LIG   0.0000
  50 H           -2.8443     2.6609    -2.8485 H            1    LIG   0.0000
  51 H           -1.2155     3.5027    -1.0752 H            1    LIG   0.0000
  52 H           -2.7904     3.2777    -0.7065 H            1    LIG   0.0000
  53 H           -1.8012     2.1059     0.9461 H            1    LIG   0.0000
  54 H           -2.0571     0.9305    -0.1582 H            1    LIG   0.0000
  55 H           -0.1734    -1.1992     1.9041 H            1    LIG   0.0000
  56 H           -1.4144    -0.2588     1.4119 H            1    LIG   0.0000
  57 H            0.8410     2.1356     4.2370 H            1    LIG   0.0000
  58 H            4.8093     1.1153     2.2323 H            1    LIG   0.0000
  59 H            4.4729     0.4098     0.7985 H            1    LIG   0.0000
  60 H            4.3667    -0.9412     3.3480 H            1    LIG   0.0000
  61 H            4.0304    -1.6468     1.9142 H            1    LIG   0.0000
  62 H            5.8111    -2.1862     0.3286 H            1    LIG   0.0000
  63 H            8.1404    -2.6639     0.0316 H            1    LIG   0.0000
  64 H            9.7163    -2.0055     1.7020 H            1    LIG   0.0000
  65 H            8.9800    -0.8710     3.6707 H            1    LIG   0.0000
  66 H            6.6519    -0.3913     3.9763 H            1    LIG   0.0000
@<TRIPOS>BOND
   1        1        2 1
   2        2        3 2
   3        3        4 1
   4        4        5 2
   5        5        6 1
   6        6        7 1
   7        7        8 2
   8        7        9 1
   9        9       10 2
  10       10       11 1
  11       11       12 2
  12       12        2 1
  13       12        6 1
  14       10       13 1
  15       13       14 1
  16       14       15 1
  17       15       16 1
  18       16       17 1
  19       17       18 1
  20       18       19 1
  21       19       13 1
  22       19       20 1
  23       20       21 1
  24       21        9 1
  25       20       22 1
  26       22       23 2
  27       22       24 am
  28       24       25 am
  29       25       26 2
  30       25       27 am
  31       27       28 1
  32       28       29 1
  33       29       30 1
  34       30       31 ar
  35       31       32 ar
  36       32       33 ar
  37       33       34 ar
  38       34       35 ar
  39       35       30 ar
  40       27       36 am
  41       36       20 1
  42       36       37 2
  43       19       38 1
  44        1       39 1
  45        1       40 1
  46        1       41 1
  47        3       42 1
  48        4       43 1
  49        5       44 1
  50       14       45 1
  51       14       46 1
  52       15       47 1
  53       15       48 1
  54       16       49 1
  55       16       50 1
  56       17       51 1
  57       17       52 1
  58       18       53 1
  59       18       54 1
  60       21       55 1
  61       21       56 1
  62       24       57 1
  63       28       58 1
  64       28       59 1
  65       29       60 1
  66       29       61 1
  67       31       62 1
  68       32       63 1
  69       33       64 1
  70       34       65 1
  71       35       66 1

@<TRIPOS>MOLECULE

  66   71
SMALL
USER_CHARGES
@<TRIPOS>ATOM
   1 C1           0.7488     6.4863     0.5380 C.3          1    LIG   0.0000
   2 C2          -0.4500     5.5877     0.2758 C.2          1    LIG   0.0000
   3 C3          -1.6833     6.1791     0.1906 C.2          1    LIG   0.0000
   4 C4          -2.8406     5.3949    -0.0538 C.2          1    LIG   0.0000
   5 C5          -2.6796     4.0444    -0.2033 C.2          1    LIG   0.0000
   6 N6          -1.4510     3.4430    -0.1226 N.pl3        1    LIG   0.0000
   7 C7          -1.3270     2.0935    -0.3135 C.2          1    LIG   0.0000
   8 O8          -2.2911     1.3766    -0.5460 O.2          1    LIG   0.0000
   9 C9          -0.0304     1.5239    -0.2659 C.2          1    LIG   0.0000
  10 C10          1.1052     2.2697     0.0344 C.2          1    LIG   0.0000
  11 N11          0.8824     3.6118     0.2013 N.2          1    LIG   0.0000
  12 C12         -0.3134     4.1788     0.1164 C.2          1    LIG   0.0000
  13 N13          2.4011     1.7114     0.1365 N.pl3        1    LIG   0.0000
  14 C14          3.4711     2.6224     0.6122 C.3          1    LIG   0.0000
  15 C15          4.8334     2.6157    -0.1029 C.3          1    LIG   0.0000
  16 C16          5.6843     1.3433    -0.2324 C.3          1    LIG   0.0000
  17 C17          5.0355     0.1060    -0.8579 C.3          1    LIG   0.0000
  18 C18          3.8178    -0.4537    -0.1281 C.3          1    LIG   0.0000
  19 C19          2.5067     0.3032    -0.3202 C.3          1    LIG   0.0000
  20 C20          1.3328    -0.5019     0.2366 C.3          1    LIG   0.0000
  21 C21          0.1501     0.0391    -0.5406 C.3          1    LIG   0.0000
  22 C22          1.2669    -0.3270     1.7524 C.2          1    LIG   0.0000
  23 O23          1.0100     0.7097     2.3537 O.2          1    LIG   0.0000
  24 N24          1.4318    -1.4420     2.5808 N.am         1    LIG   0.0000
  25 C25          1.5884    -2.7260     2.0368 C.2          1    LIG   0.0000
  26 O26          1.7270    -3.6640     2.8072 O.2          1    LIG   0.0000
  27 N27          1.5799    -2.9684     0.6529 N.am         1    LIG   0.0000
  28 C28          1.7114    -4.3526     0.1715 C.3          1    LIG   0.0000
  29 C29          3.1818    -4.6817    -0.0288 C.3          1    LIG   0.0000
  30 C30          3.3177    -6.1119    -0.5261 C.ar         1    LIG   0.0000
  31 C31          3.4474    -7.1499     0.3907 C.ar         1    LIG   0.0000
  32 C32          3.5720    -8.4553    -0.0730 C.ar         1    LIG   0.0000
  33 C33          3.5658    -8.7119    -1.4407 C.ar         1    LIG   0.0000
  34 C34          3.4353    -7.6678    -2.3505 C.ar         1    LIG   0.0000
  35 C35          3.3109    -6.3591    -1.8951 C.ar         1    LIG   0.0000
  36 C36          1.4417    -1.9340    -0.2815 C.2          1    LIG   0.0000
  37 O37          1.4030    -2.2210    -1.4726 O.2          1    LIG   0.0000
  38 H            2.3612     0.3340    -1.3091 H            1    LIG   0.0000
  39 H            0.4430     7.4349     0.6187 H            1    LIG   0.0000
  40 H            1.1955     6.2066     1.3879 H            1    LIG   0.0000
  41 H            1.3962     6.4081    -0.2201 H            1    LIG   0.0000
  42 H           -1.7683     7.1693     0.3014 H            1    LIG   0.0000
  43 H           -3.7455     5.8162    -0.1149 H            1    LIG   0.0000
  44 H           -3.4849     3.4777    -0.3772 H            1    LIG   0.0000
  45 H            3.6429     2.3962     1.5710 H            1    LIG   0.0000
  46 H            3.1120     3.5536     0.5485 H            1    LIG   0.0000
  47 H            5.4027     3.2844     0.3753 H            1    LIG   0.0000
  48 H            4.6603     2.9316    -1.0358 H            1    LIG   0.0000
  49 H            5.9823     1.0897     0.6879 H            1    LIG   0.0000
  50 H            6.4821     1.5744    -0.7893 H            1    LIG   0.0000
  51 H            4.7519     0.3459    -1.7864 H            1    LIG   0.0000
  52 H            5.7270    -0.6154    -0.8965 H            1    LIG   0.0000
  53 H            3.6772    -1.3917    -0.4451 H            1    LIG   0.0000
  54 H            4.0253    -0.4600     0.8501 H            1    LIG   0.0000
  55 H            0.3078    -0.0982    -1.5185 H            1    LIG   0.0000
  56 H           -0.6772    -0.4500    -0.2645 H            1    LIG   0.0000
  57 H            1.4382    -1.3226     3.5736 H            1    LIG   0.0000
  58 H            1.2264    -4.4509    -0.6975 H            1    LIG   0.0000
  59 H            1.3185    -4.9785     0.8452 H            1    LIG   0.0000
  60 H            3.5747    -4.0558    -0.7025 H            1    LIG   0.0000
  61 H            3.6668    -4.5835     0.8401 H            1    LIG   0.0000
  62 H            3.4511    -6.9597     1.3725 H            1    LIG   0.0000
  63 H            3.6661    -9.2097     0.5767 H            1    LIG   0.0000
  64 H            3.6555    -9.6515    -1.7711 H            1    LIG   0.0000
  65 H            3.4310    -7.8579    -3.3322 H            1    LIG   0.0000
  66 H            3.2175    -5.6045    -2.5446 H            1    LIG   0.0000
@<TRIPOS>BOND
   1        1        2 1
   2        2        3 2
   3        3        4 1
   4        4        5 2
   5        5        6 1
   6        6        7 1
   7        7        8 2
   8        7        9 1
   9        9       10 2
  10       10       11 1
  11       11       12 2
  12       12        2 1
  13       12        6 1
  14       10       13 1
  15       13       14 1
  16       14       15 1
  17       15       16 1
  18       16       17 1
  19       17       18 1
  20       18       19 1
  21       19       13 1
  22       19       20 1
  23       20       21 1
  24       21        9 1
  25       20       22 1
  26       22       23 2
  27       22       24 am
  28       24       25 am
  29       25       26 2
  30       25       27 am
  31       27       28 1
  32       28       29 1
  33       29       30 1
  34       30       31 ar
  35       31       32 ar
  36       32       33 ar
  37       33       34 ar
  38       34       35 ar
  39       35       30 ar
  40       27       36 am
  41       36       20 1
  42       36       37 2
  43       19       38 1
  44        1       39 1
  45        1       40 1
  46        1       41 1
  47        3       42 1
  48        4       43 1
  49        5       44 1
  50       14       45 1
  51       14       46 1
  52       15       47 1
  53       15       48 1
  54       16       49 1
  55       16       50 1
  56       17       51 1
  57       17       52 1
  58       18       53 1
  59       18       54 1
  60       21       55 1
  61       21       56 1
  62       24       57 1
  63       28       58 1
  64       28       59 1
  65       29       60 1
  66       29       61 1
  67       31       62 1
  68       32       63 1
  69       33       64 1
  70       34       65 1
  71       35       66 1

@<TRIPOS>MOLECULE

  66   71
SMALL
USER_CHARGES
@<TRIPOS>ATOM
   1 C1           0.7488     6.4863     0.5380 C.3          1    LIG   0.0000
   2 C2          -0.4500     5.5877     0.2758 C.2          1    LIG   0.0000
   3 C3          -1.6833     6.1791     0.1906 C.2          1    LIG   0.0000
   4 C4          -2.8406     5.3949    -0.0538 C.2          1    LIG   0.0000
   5 C5          -2.6796     4.0444    -0.2033 C.2          1    LIG   0.0000
   6 N6          -1.4510     3.4430    -0.1226 N.pl3        1    LIG   0.0000
   7 C7          -1.3270     2.0935    -0.3135 C.2          1    LIG   0.0000
   8 O8          -2.2911     1.3766    -0.5460 O.2          1    LIG   0.0000
   9 C9          -0.0304     1.5239    -0.2659 C.2          1    LIG   0.0000
  10 C10          1.1052     2.2697     0.0344 C.2          1    LIG   0.0000
  11 N11          0.8824     3.6118     0.2013 N.2          1    LIG   0.0000
  12 C12         -0.3134     4.1788     0.1164 C.2          1    LIG   0.0000
  13 N13          2.4011     1.7114     0.1365 N.pl3        1    LIG   0.0000
  14 C14          3.4711     2.6224     0.6122 C.3          1    LIG   0.0000
  15 C15          4.8334     2.6157    -0.1029 C.3          1    LIG   0.0000
  16 C16          5.6843     1.3433    -0.2324 C.3          1    LIG   0.0000
  17 C17          5.0355     0.1060    -0.8579 C.3          1    LIG   0.0000
  18 C18          3.8178    -0.4537    -0.1281 C.3          1    LIG   0.0000
  19 C19          2.5067     0.3032    -0.3202 C.3          1    LIG   0.0000
  20 C20          1.3328    -0.5019     0.2366 C.3          1    LIG   0.0000
  21 C21          0.1501     0.0391    -0.5406 C.3          1    LIG   0.0000
  22 C22          1.2669    -0.3270     1.7524 C.2          1    LIG   0.0000
  23 O23          1.0100     0.7097     2.3537 O.2          1    LIG   0.0000
  24 N24          1.4318    -1.4420     2.5808 N.am         1    LIG   0.0000
  25 C25          1.5884    -2.7260     2.0368 C.2          1    LIG   0.0000
  26 O26          1.7270    -3.6640     2.8072 O.2          1    LIG   0.0000
  27 N27          1.5799    -2.9684     0.6529 N.am         1    LIG   0.0000
  28 C28          1.7114    -4.3526     0.1715 C.3          1    LIG   0.0000
  29 C29          0.3317    -4.9767     0.0404 C.3          1    LIG   0.0000
  30 C30          0.4677    -6.4069    -0.4569 C.ar         1    LIG   0.0000
  31 C31          0.4610    -6.6637    -1.8240 C.ar         1    LIG   0.0000
  32 C32          0.5852    -7.9752    -2.2702 C.ar         1    LIG   0.0000
  33 C33          0.7146    -9.0135    -1.3528 C.ar         1    LIG   0.0000
  34 C34          0.7205    -8.7475     0.0126 C.ar         1    LIG   0.0000
  35 C35          0.5961    -7.4386     0.4673 C.ar         1    LIG   0.0000
  36 C36          1.4417    -1.9340    -0.2815 C.2          1    LIG   0.0000
  37 O37          1.4030    -2.2210    -1.4726 O.2          1    LIG   0.0000
  38 H            2.3612     0.3340    -1.3091 H            1    LIG   0.0000
  39 H            0.4430     7.4349     0.6187 H            1    LIG   0.0000
  40 H            1.1955     6.2066     1.3879 H            1    LIG   0.0000
  41 H            1.3962     6.4081    -0.2201 H            1    LIG   0.0000
  42 H           -1.7683     7.1693     0.3014 H            1    LIG   0.0000
  43 H           -3.7455     5.8162    -0.1149 H            1    LIG   0.0000
  44 H           -3.4849     3.4777    -0.3772 H            1    LIG   0.0000
  45 H            3.6429     2.3962     1.5710 H            1    LIG   0.0000
  46 H            3.1120     3.5536     0.5485 H            1    LIG   0.0000
  47 H            5.4027     3.2844     0.3753 H            1    LIG   0.0000
  48 H            4.6603     2.9316    -1.0358 H            1    LIG   0.0000
  49 H            5.9823     1.0897     0.6879 H            1    LIG   0.0000
  50 H            6.4821     1.5744    -0.7893 H            1    LIG   0.0000
  51 H            4.7519     0.3459    -1.7864 H            1    LIG   0.0000
  52 H            5.7270    -0.6154    -0.8965 H            1    LIG   0.0000
  53 H            3.6772    -1.3917    -0.4451 H            1    LIG   0.0000
  54 H            4.0253    -0.4600     0.8501 H            1    LIG   0.0000
  55 H            0.3078    -0.0982    -1.5185 H            1    LIG   0.0000
  56 H           -0.6772    -0.4500    -0.2645 H            1    LIG   0.0000
  57 H            1.4382    -1.3226     3.5736 H            1    LIG   0.0000
  58 H            2.2561    -4.8815     0.8224 H            1    LIG   0.0000
  59 H            2.1640    -4.3538    -0.7202 H            1    LIG   0.0000
  60 H           -0.1208    -4.9755     0.9322 H            1    LIG   0.0000
  61 H           -0.2129    -4.4478    -0.6105 H            1    LIG   0.0000
  62 H            0.3680    -5.9136    -2.4788 H            1    LIG   0.0000
  63 H            0.5815    -8.1720    -3.2506 H            1    LIG   0.0000
  64 H            0.8037    -9.9554    -1.6767 H            1    LIG   0.0000
  65 H            0.8142    -9.4974     0.6675 H            1    LIG   0.0000
  66 H            0.5990    -7.2416     1.4477 H            1    LIG   0.0000
@<TRIPOS>BOND
   1        1        2 1
   2        2        3 2
   3        3        4 1
   4        4        5 2
   5        5        6 1
   6        6        7 1
   7        7        8 2
   8        7        9 1
   9        9       10 2
  10       10       11 1
  11       11       12 2
  12       12        2 1
  13       12        6 1
  14       10       13 1
  15       13       14 1
  16       14       15 1
  17       15       16 1
  18       16       17 1
  19       17       18 1
  20       18       19 1
  21       19       13 1
  22       19       20 1
  23       20       21 1
  24       21        9 1
  25       20       22 1
  26       22       23 2
  27       22       24 am
  28       24       25 am
  29       25       26 2
  30       25       27 am
  31       27       28 1
  32       28       29 1
  33       29       30 1
  34       30       31 ar
  35       31       32 ar
  36       32       33 ar
  37       33       34 ar
  38       34       35 ar
  39       35       30 ar
  40       27       36 am
  41       36       20 1
  42       36       37 2
  43       19       38 1
  44        1       39 1
  45        1       40 1
  46        1       41 1
  47        3       42 1
  48        4       43 1
  49        5       44 1
  50       14       45 1
  51       14       46 1
  52       15       47 1
  53       15       48 1
  54       16       49 1
  55       16       50 1
  56       17       51 1
  57       17       52 1
  58       18       53 1
  59       18       54 1
  60       21       55 1
  61       21       56 1
  62       24       57 1
  63       28       58 1
  64       28       59 1
  65       29       60 1
  66       29       61 1
  67       31       62 1
  68       32       63 1
  69       33       64 1
  70       34       65 1
  71       35       66 1

@<TRIPOS>MOLECULE

  66   71
SMALL
USER_CHARGES
@<TRIPOS>ATOM
   1 C1           0.7460     6.4702     0.5717 C.3          1    LIG   0.0000
   2 C2          -0.4535     5.5796     0.2847 C.2          1    LIG   0.0000
   3 C3          -1.6815     6.1810     0.1954 C.2          1    LIG   0.0000
   4 C4          -2.8320     5.3931    -0.0710 C.2          1    LIG   0.0000
   5 C5          -2.6767     4.0430    -0.2380 C.2          1    LIG   0.0000
   6 N6          -1.4485     3.4326    -0.1523 N.pl3        1    LIG   0.0000
   7 C7          -1.3195     2.0789    -0.3477 C.2          1    LIG   0.0000
   8 O8          -2.2813     1.3687    -0.6002 O.2          1    LIG   0.0000
   9 C9          -0.0160     1.5118    -0.2791 C.2          1    LIG   0.0000
  10 C10          1.0827     2.2674     0.0351 C.2          1    LIG   0.0000
  11 N11          0.8725     3.6130     0.2084 N.2          1    LIG   0.0000
  12 C12         -0.3237     4.1735     0.1127 C.2          1    LIG   0.0000
  13 N13          2.3609     1.7291     0.1967 N.pl3        1    LIG   0.0000
  14 C14          3.4278     2.5427     0.8471 C.3          1    LIG   0.0000
  15 C15          4.4890     1.9392     1.7775 C.3          1    LIG   0.0000
  16 C16          5.2887     0.6936     1.3715 C.3          1    LIG   0.0000
  17 C17          4.4748    -0.5493     0.9957 C.3          1    LIG   0.0000
  18 C18          3.8558    -0.2770    -0.3684 C.3          1    LIG   0.0000
  19 C19          2.4612     0.3481    -0.3303 C.3          1    LIG   0.0000
  20 C20          1.3239    -0.4878     0.2395 C.3          1    LIG   0.0000
  21 C21          0.1312     0.0260    -0.5506 C.3          1    LIG   0.0000
  22 C22          1.2286    -0.3714     1.7702 C.2          1    LIG   0.0000
  23 O23          0.9718     0.6409     2.4041 O.2          1    LIG   0.0000
  24 N24          1.4097    -1.5109     2.5518 N.am         1    LIG   0.0000
  25 C25          1.6059    -2.7675     1.9707 C.2          1    LIG   0.0000
  26 O26          1.7580    -3.7188     2.7178 O.2          1    LIG   0.0000
  27 N27          1.6082    -2.9581     0.5807 N.am         1    LIG   0.0000
  28 C28          1.7713    -4.3228     0.0556 C.3          1    LIG   0.0000
  29 C29          3.2492    -4.6144    -0.1473 C.3          1    LIG   0.0000
  30 C30          3.5033    -6.1011     0.0433 C.ar         1    LIG   0.0000
  31 C31          4.6459    -6.5235     0.7146 C.ar         1    LIG   0.0000
  32 C32          4.8709    -7.8856     0.8838 C.ar         1    LIG   0.0000
  33 C33          3.9579    -8.8094     0.3843 C.ar         1    LIG   0.0000
  34 C34          2.8176    -8.3780    -0.2856 C.ar         1    LIG   0.0000
  35 C35          2.5854    -7.0174    -0.4597 C.ar         1    LIG   0.0000
  36 C36          1.4566    -1.8978    -0.3242 C.2          1    LIG   0.0000
  37 O37          1.4228    -2.1581    -1.5227 O.2          1    LIG   0.0000
  38 H            2.2206     0.4463    -1.2960 H            1    LIG   0.0000
  39 H            0.4433     7.4194     0.6579 H            1    LIG   0.0000
  40 H            1.1801     6.1801     1.4246 H            1    LIG   0.0000
  41 H            1.4029     6.3967    -0.1786 H            1    LIG   0.0000
  42 H           -1.7668     7.1699     0.3173 H            1    LIG   0.0000
  43 H           -3.7363     5.8150    -0.1353 H            1    LIG   0.0000
  44 H           -3.4830     3.4830    -0.4284 H            1    LIG   0.0000
  45 H            2.9535     3.2393     1.3854 H            1    LIG   0.0000
  46 H            3.9314     2.9820     0.1032 H            1    LIG   0.0000
  47 H            4.0201     1.7090     2.6302 H            1    LIG   0.0000
  48 H            5.1585     2.6618     1.9498 H            1    LIG   0.0000
  49 H            5.8802     0.4486     2.1397 H            1    LIG   0.0000
  50 H            5.8518     0.9381     0.5820 H            1    LIG   0.0000
  51 H            5.0720    -1.3501     0.9487 H            1    LIG   0.0000
  52 H            3.7570    -0.7082     1.6736 H            1    LIG   0.0000
  53 H            4.4612     0.3446    -0.8655 H            1    LIG   0.0000
  54 H            3.7934    -1.1456    -0.8599 H            1    LIG   0.0000
  55 H            0.2819    -0.1259    -1.5274 H            1    LIG   0.0000
  56 H           -0.6973    -0.4541    -0.2625 H            1    LIG   0.0000
  57 H            1.3991    -1.4282     3.5483 H            1    LIG   0.0000
  58 H            1.2926    -4.4030    -0.8187 H            1    LIG   0.0000
  59 H            1.3885    -4.9784     0.7066 H            1    LIG   0.0000
  60 H            3.5179    -4.3461    -1.0724 H            1    LIG   0.0000
  61 H            3.7857    -4.0965     0.5191 H            1    LIG   0.0000
  62 H            5.2985    -5.8552     1.0717 H            1    LIG   0.0000
  63 H            5.6890    -8.2012     1.3646 H            1    LIG   0.0000
  64 H            4.1223    -9.7881     0.5075 H            1    LIG   0.0000
  65 H            2.1646    -9.0462    -0.6421 H            1    LIG   0.0000
  66 H            1.7678    -6.7016    -0.9411 H            1    LIG   0.0000
@<TRIPOS>BOND
   1        1        2 1
   2        2        3 2
   3        3        4 1
   4        4        5 2
   5        5        6 1
   6        6        7 1
   7        7        8 2
   8        7        9 1
   9        9       10 2
  10       10       11 1
  11       11       12 2
  12       12        2 1
  13       12        6 1
  14       10       13 1
  15       13       14 1
  16       14       15 1
  17       15       16 1
  18       16       17 1
  19       17       18 1
  20       18       19 1
  21       19       13 1
  22       19       20 1
  23       20       21 1
  24       21        9 1
  25       20       22 1
  26       22       23 2
  27       22       24 am
  28       24       25 am
  29       25       26 2
  30       25       27 am
  31       27       28 1
  32       28       29 1
  33       29       30 1
  34       30       31 ar
  35       31       32 ar
  36       32       33 ar
  37       33       34 ar
  38       34       35 ar
  39       35       30 ar
  40       27       36 am
  41       36       20 1
  42       36       37 2
  43       19       38 1
  44        1       39 1
  45        1       40 1
  46        1       41 1
  47        3       42 1
  48        4       43 1
  49        5       44 1
  50       14       45 1
  51       14       46 1
  52       15       47 1
  53       15       48 1
  54       16       49 1
  55       16       50 1
  56       17       51 1
  57       17       52 1
  58       18       53 1
  59       18       54 1
  60       21       55 1
  61       21       56 1
  62       24       57 1
  63       28       58 1
  64       28       59 1
  65       29       60 1
  66       29       61 1
  67       31       62 1
  68       32       63 1
  69       33       64 1
  70       34       65 1
  71       35       66 1

@<TRIPOS>MOLECULE

  66   71
SMALL
USER_CHARGES
@<TRIPOS>ATOM
   1 C1           0.7460     6.4702     0.5717 C.3          1    LIG   0.0000
   2 C2          -0.4535     5.5796     0.2847 C.2          1    LIG   0.0000
   3 C3          -1.6815     6.1810     0.1954 C.2          1    LIG   0.0000
   4 C4          -2.8320     5.3931    -0.0710 C.2          1    LIG   0.0000
   5 C5          -2.6767     4.0430    -0.2380 C.2          1    LIG   0.0000
   6 N6          -1.4485     3.4326    -0.1523 N.pl3        1    LIG   0.0000
   7 C7          -1.3195     2.0789    -0.3477 C.2          1    LIG   0.0000
   8 O8          -2.2813     1.3687    -0.6002 O.2          1    LIG   0.0000
   9 C9          -0.0160     1.5118    -0.2791 C.2          1    LIG   0.0000
  10 C10          1.0827     2.2674     0.0351 C.2          1    LIG   0.0000
  11 N11          0.8725     3.6130     0.2084 N.2          1    LIG   0.0000
  12 C12         -0.3237     4.1735     0.1127 C.2          1    LIG   0.0000
  13 N13          2.3609     1.7291     0.1967 N.pl3        1    LIG   0.0000
  14 C14          3.4278     2.5427     0.8471 C.3          1    LIG   0.0000
  15 C15          4.4890     1.9392     1.7775 C.3          1    LIG   0.0000
  16 C16          5.2887     0.6936     1.3715 C.3          1    LIG   0.0000
  17 C17          4.4748    -0.5493     0.9957 C.3          1    LIG   0.0000
  18 C18          3.8558    -0.2770    -0.3684 C.3          1    LIG   0.0000
  19 C19          2.4612     0.3481    -0.3303 C.3          1    LIG   0.0000
  20 C20          1.3239    -0.4878     0.2395 C.3          1    LIG   0.0000
  21 C21          0.1312     0.0260    -0.5506 C.3          1    LIG   0.0000
  22 C22          1.2286    -0.3714     1.7702 C.2          1    LIG   0.0000
  23 O23          0.9718     0.6409     2.4041 O.2          1    LIG   0.0000
  24 N24          1.4097    -1.5109     2.5518 N.am         1    LIG   0.0000
  25 C25          1.6059    -2.7675     1.9707 C.2          1    LIG   0.0000
  26 O26          1.7580    -3.7188     2.7178 O.2          1    LIG   0.0000
  27 N27          1.6082    -2.9581     0.5807 N.am         1    LIG   0.0000
  28 C28          1.7713    -4.3228     0.0556 C.3          1    LIG   0.0000
  29 C29          2.9707    -4.9806     0.7183 C.3          1    LIG   0.0000
  30 C30          3.5950    -5.9805    -0.2418 C.ar         1    LIG   0.0000
  31 C31          2.7754    -6.7816    -1.0301 C.ar         1    LIG   0.0000
  32 C32          3.3550    -7.6941    -1.9053 C.ar         1    LIG   0.0000
  33 C33          4.7403    -7.7984    -1.9857 C.ar         1    LIG   0.0000
  34 C34          5.5523    -6.9931    -1.1938 C.ar         1    LIG   0.0000
  35 C35          4.9807    -6.0781    -0.3153 C.ar         1    LIG   0.0000
  36 C36          1.4566    -1.8978    -0.3242 C.2          1    LIG   0.0000
  37 O37          1.4228    -2.1581    -1.5227 O.2          1    LIG   0.0000
  38 H            2.2206     0.4463    -1.2960 H            1    LIG   0.0000
  39 H            0.4433     7.4194     0.6579 H            1    LIG   0.0000
  40 H            1.1801     6.1801     1.4246 H            1    LIG   0.0000
  41 H            1.4029     6.3967    -0.1786 H            1    LIG   0.0000
  42 H           -1.7668     7.1699     0.3173 H            1    LIG   0.0000
  43 H           -3.7363     5.8150    -0.1353 H            1    LIG   0.0000
  44 H           -3.4830     3.4830    -0.4284 H            1    LIG   0.0000
  45 H            2.9535     3.2393     1.3854 H            1    LIG   0.0000
  46 H            3.9314     2.9820     0.1032 H            1    LIG   0.0000
  47 H            4.0201     1.7090     2.6302 H            1    LIG   0.0000
  48 H            5.1585     2.6618     1.9498 H            1    LIG   0.0000
  49 H            5.8802     0.4486     2.1397 H            1    LIG   0.0000
  50 H            5.8518     0.9381     0.5820 H            1    LIG   0.0000
  51 H            5.0720    -1.3501     0.9487 H            1    LIG   0.0000
  52 H            3.7570    -0.7082     1.6736 H            1    LIG   0.0000
  53 H            4.4612     0.3446    -0.8655 H            1    LIG   0.0000
  54 H            3.7934    -1.1456    -0.8599 H            1    LIG   0.0000
  55 H            0.2819    -0.1259    -1.5274 H            1    LIG   0.0000
  56 H           -0.6973    -0.4541    -0.2625 H            1    LIG   0.0000
  57 H            1.3991    -1.4282     3.5483 H            1    LIG   0.0000
  58 H            1.9161    -4.2845    -0.9331 H            1    LIG   0.0000
  59 H            0.9482    -4.8559     0.2515 H            1    LIG   0.0000
  60 H            3.6449    -4.2816     0.9566 H            1    LIG   0.0000
  61 H            2.6749    -5.4548     1.5476 H            1    LIG   0.0000
  62 H            1.7805    -6.7022    -0.9683 H            1    LIG   0.0000
  63 H            2.7760    -8.2755    -2.4769 H            1    LIG   0.0000
  64 H            5.1541    -8.4554    -2.6159 H            1    LIG   0.0000
  65 H            6.5473    -7.0718    -1.2559 H            1    LIG   0.0000
  66 H            5.5595    -5.4972     0.2570 H            1    LIG   0.0000
@<TRIPOS>BOND
   1        1        2 1
   2        2        3 2
   3        3        4 1
   4        4        5 2
   5        5        6 1
   6        6        7 1
   7        7        8 2
   8        7        9 1
   9        9       10 2
  10       10       11 1
  11       11       12 2
  12       12        2 1
  13       12        6 1
  14       10       13 1
  15       13       14 1
  16       14       15 1
  17       15       16 1
  18       16       17 1
  19       17       18 1
  20       18       19 1
  21       19       13 1
  22       19       20 1
  23       20       21 1
  24       21        9 1
  25       20       22 1
  26       22       23 2
  27       22       24 am
  28       24       25 am
  29       25       26 2
  30       25       27 am
  31       27       28 1
  32       28       29 1
  33       29       30 1
  34       30       31 ar
  35       31       32 ar
  36       32       33 ar
  37       33       34 ar
  38       34       35 ar
  39       35       30 ar
  40       27       36 am
  41       36       20 1
  42       36       37 2
  43       19       38 1
  44        1       39 1
  45        1       40 1
  46        1       41 1
  47        3       42 1
  48        4       43 1
  49        5       44 1
  50       14       45 1
  51       14       46 1
  52       15       47 1
  53       15       48 1
  54       16       49 1
  55       16       50 1
  56       17       51 1
  57       17       52 1
  58       18       53 1
  59       18       54 1
  60       21       55 1
  61       21       56 1
  62       24       57 1
  63       28       58 1
  64       28       59 1
  65       29       60 1
  66       29       61 1
  67       31       62 1
  68       32       63 1
  69       33       64 1
  70       34       65 1
  71       35       66 1

@<TRIPOS>MOLECULE

  66   71
SMALL
USER_CHARGES
@<TRIPOS>ATOM
   1 C1           0.7460     6.4702     0.5717 C.3          1    LIG   0.0000
   2 C2          -0.4535     5.5796     0.2847 C.2          1    LIG   0.0000
   3 C3          -1.6815     6.1810     0.1954 C.2          1    LIG   0.0000
   4 C4          -2.8320     5.3931    -0.0710 C.2          1    LIG   0.0000
   5 C5          -2.6767     4.0430    -0.2380 C.2          1    LIG   0.0000
   6 N6          -1.4485     3.4326    -0.1523 N.pl3        1    LIG   0.0000
   7 C7          -1.3195     2.0789    -0.3477 C.2          1    LIG   0.0000
   8 O8          -2.2813     1.3687    -0.6002 O.2          1    LIG   0.0000
   9 C9          -0.0160     1.5118    -0.2791 C.2          1    LIG   0.0000
  10 C10          1.0827     2.2674     0.0351 C.2          1    LIG   0.0000
  11 N11          0.8725     3.6130     0.2084 N.2          1    LIG   0.0000
  12 C12         -0.3237     4.1735     0.1127 C.2          1    LIG   0.0000
  13 N13          2.3609     1.7291     0.1967 N.pl3        1    LIG   0.0000
  14 C14          3.4278     2.5427     0.8471 C.3          1    LIG   0.0000
  15 C15          4.4890     1.9392     1.7775 C.3          1    LIG   0.0000
  16 C16          5.2887     0.6936     1.3715 C.3          1    LIG   0.0000
  17 C17          4.4748    -0.5493     0.9957 C.3          1    LIG   0.0000
  18 C18          3.8558    -0.2770    -0.3684 C.3          1    LIG   0.0000
  19 C19          2.4612     0.3481    -0.3303 C.3          1    LIG   0.0000
  20 C20          1.3239    -0.4878     0.2395 C.3          1    LIG   0.0000
  21 C21          0.1312     0.0260    -0.5506 C.3          1    LIG   0.0000
  22 C22          1.2286    -0.3714     1.7702 C.2          1    LIG   0.0000
  23 O23          0.9718     0.6409     2.4041 O.2          1    LIG   0.0000
  24 N24          1.4097    -1.5109     2.5518 N.am         1    LIG   0.0000
  25 C25          1.6059    -2.7675     1.9707 C.2          1    LIG   0.0000
  26 O26          1.7580    -3.7188     2.7178 O.2          1    LIG   0.0000
  27 N27          1.6082    -2.9581     0.5807 N.am         1    LIG   0.0000
  28 C28          1.7713    -4.3228     0.0556 C.3          1    LIG   0.0000
  29 C29          2.8625    -4.3316    -1.0025 C.3          1    LIG   0.0000
  30 C30          2.5679    -5.4171    -2.0252 C.ar         1    LIG   0.0000
  31 C31          3.6096    -6.1896    -2.5283 C.ar         1    LIG   0.0000
  32 C32          3.3312    -7.1801    -3.4642 C.ar         1    LIG   0.0000
  33 C33          2.0223    -7.3901    -3.8874 C.ar         1    LIG   0.0000
  34 C34          0.9867    -6.6130    -3.3788 C.ar         1    LIG   0.0000
  35 C35          1.2566    -5.6197    -2.4428 C.ar         1    LIG   0.0000
  36 C36          1.4566    -1.8978    -0.3242 C.2          1    LIG   0.0000
  37 O37          1.4228    -2.1581    -1.5227 O.2          1    LIG   0.0000
  38 H            2.2206     0.4463    -1.2960 H            1    LIG   0.0000
  39 H            0.4433     7.4194     0.6579 H            1    LIG   0.0000
  40 H            1.1801     6.1801     1.4246 H            1    LIG   0.0000
  41 H            1.4029     6.3967    -0.1786 H            1    LIG   0.0000
  42 H           -1.7668     7.1699     0.3173 H            1    LIG   0.0000
  43 H           -3.7363     5.8150    -0.1353 H            1    LIG   0.0000
  44 H           -3.4830     3.4830    -0.4284 H            1    LIG   0.0000
  45 H            2.9535     3.2393     1.3854 H            1    LIG   0.0000
  46 H            3.9314     2.9820     0.1032 H            1    LIG   0.0000
  47 H            4.0201     1.7090     2.6302 H            1    LIG   0.0000
  48 H            5.1585     2.6618     1.9498 H            1    LIG   0.0000
  49 H            5.8802     0.4486     2.1397 H            1    LIG   0.0000
  50 H            5.8518     0.9381     0.5820 H            1    LIG   0.0000
  51 H            5.0720    -1.3501     0.9487 H            1    LIG   0.0000
  52 H            3.7570    -0.7082     1.6736 H            1    LIG   0.0000
  53 H            4.4612     0.3446    -0.8655 H            1    LIG   0.0000
  54 H            3.7934    -1.1456    -0.8599 H            1    LIG   0.0000
  55 H            0.2819    -0.1259    -1.5274 H            1    LIG   0.0000
  56 H           -0.6973    -0.4541    -0.2625 H            1    LIG   0.0000
  57 H            1.3991    -1.4282     3.5483 H            1    LIG   0.0000
  58 H            0.9104    -4.6287    -0.3508 H            1    LIG   0.0000
  59 H            2.0252    -4.9387     0.8014 H            1    LIG   0.0000
  60 H            2.8912    -3.4424    -1.4591 H            1    LIG   0.0000
  61 H            3.7454    -4.5125    -0.5693 H            1    LIG   0.0000
  62 H            4.5483    -6.0345    -2.2204 H            1    LIG   0.0000
  63 H            4.0719    -7.7416    -3.8331 H            1    LIG   0.0000
  64 H            1.8252    -8.1030    -4.5604 H            1    LIG   0.0000
  65 H            0.0478    -6.7684    -3.6861 H            1    LIG   0.0000
  66 H            0.5161    -5.0576    -2.0743 H            1    LIG   0.0000
@<TRIPOS>BOND
   1        1        2 1
   2        2        3 2
   3        3        4 1
   4        4        5 2
   5        5        6 1
   6        6        7 1
   7        7        8 2
   8        7        9 1
   9        9       10 2
  10       10       11 1
  11       11       12 2
  12       12        2 1
  13       12        6 1
  14       10       13 1
  15       13       14 1
  16       14       15 1
  17       15       16 1
  18       16       17 1
  19       17       18 1
  20       18       19 1
  21       19       13 1
  22       19       20 1
  23       20       21 1
  24       21        9 1
  25       20       22 1
  26       22       23 2
  27       22       24 am
  28       24       25 am
  29       25       26 2
  30       25       27 am
  31       27       28 1
  32       28       29 1
  33       29       30 1
  34       30       31 ar
  35       31       32 ar
  36       32       33 ar
  37       33       34 ar
  38       34       35 ar
  39       35       30 ar
  40       27       36 am
  41       36       20 1
  42       36       37 2
  43       19       38 1
  44        1       39 1
  45        1       40 1
  46        1       41 1
  47        3       42 1
  48        4       43 1
  49        5       44 1
  50       14       45 1
  51       14       46 1
  52       15       47 1
  53       15       48 1
  54       16       49 1
  55       16       50 1
  56       17       51 1
  57       17       52 1
  58       18       53 1
  59       18       54 1
  60       21       55 1
  61       21       56 1
  62       24       57 1
  63       28       58 1
  64       28       59 1
  65       29       60 1
  66       29       61 1
  67       31       62 1
  68       32       63 1
  69       33       64 1
  70       34       65 1
  71       35       66 1

@<TRIPOS>MOLECULE

  66   71
SMALL
USER_CHARGES
@<TRIPOS>ATOM
   1 C1           0.7460     6.4702     0.5717 C.3          1    LIG   0.0000
   2 C2          -0.4535     5.5796     0.2847 C.2          1    LIG   0.0000
   3 C3          -1.6815     6.1810     0.1954 C.2          1    LIG   0.0000
   4 C4          -2.8320     5.3931    -0.0710 C.2          1    LIG   0.0000
   5 C5          -2.6767     4.0430    -0.2380 C.2          1    LIG   0.0000
   6 N6          -1.4485     3.4326    -0.1523 N.pl3        1    LIG   0.0000
   7 C7          -1.3195     2.0789    -0.3477 C.2          1    LIG   0.0000
   8 O8          -2.2813     1.3687    -0.6002 O.2          1    LIG   0.0000
   9 C9          -0.0160     1.5118    -0.2791 C.2          1    LIG   0.0000
  10 C10          1.0827     2.2674     0.0351 C.2          1    LIG   0.0000
  11 N11          0.8725     3.6130     0.2084 N.2          1    LIG   0.0000
  12 C12         -0.3237     4.1735     0.1127 C.2          1    LIG   0.0000
  13 N13          2.3609     1.7291     0.1967 N.pl3        1    LIG   0.0000
  14 C14          3.4278     2.5427     0.8471 C.3          1    LIG   0.0000
  15 C15          4.4890     1.9392     1.7775 C.3          1    LIG   0.0000
  16 C16          5.2887     0.6936     1.3715 C.3          1    LIG   0.0000
  17 C17          4.4748    -0.5493     0.9957 C.3          1    LIG   0.0000
  18 C18          3.8558    -0.2770    -0.3684 C.3          1    LIG   0.0000
  19 C19          2.4612     0.3481    -0.3303 C.3          1    LIG   0.0000
  20 C20          1.3239    -0.4878     0.2395 C.3          1    LIG   0.0000
  21 C21          0.1312     0.0260    -0.5506 C.3          1    LIG   0.0000
  22 C22          1.2286    -0.3714     1.7702 C.2          1    LIG   0.0000
  23 O23          0.9718     0.6409     2.4041 O.2          1    LIG   0.0000
  24 N24          1.4097    -1.5109     2.5518 N.am         1    LIG   0.0000
  25 C25          1.6059    -2.7675     1.9707 C.2          1    LIG   0.0000
  26 O26          1.7580    -3.7188     2.7178 O.2          1    LIG   0.0000
  27 N27          1.6082    -2.9581     0.5807 N.am         1    LIG   0.0000
  28 C28          1.7713    -4.3228     0.0556 C.3          1    LIG   0.0000
  29 C29          0.4057    -4.9712    -0.1031 C.3          1    LIG   0.0000
  30 C30          0.5327    -6.4739     0.0894 C.ar         1    LIG   0.0000
  31 C31          1.6296    -7.1452    -0.4407 C.ar         1    LIG   0.0000
  32 C32          1.7375    -8.5202    -0.2605 C.ar         1    LIG   0.0000
  33 C33          0.7550    -9.2094     0.4439 C.ar         1    LIG   0.0000
  34 C34         -0.3385    -8.5298     0.9708 C.ar         1    LIG   0.0000
  35 C35         -0.4544    -7.1546     0.7945 C.ar         1    LIG   0.0000
  36 C36          1.4566    -1.8978    -0.3242 C.2          1    LIG   0.0000
  37 O37          1.4228    -2.1581    -1.5227 O.2          1    LIG   0.0000
  38 H            2.2206     0.4463    -1.2960 H            1    LIG   0.0000
  39 H            0.4433     7.4194     0.6579 H            1    LIG   0.0000
  40 H            1.1801     6.1801     1.4246 H            1    LIG   0.0000
  41 H            1.4029     6.3967    -0.1786 H            1    LIG   0.0000
  42 H           -1.7668     7.1699     0.3173 H            1    LIG   0.0000
  43 H           -3.7363     5.8150    -0.1353 H            1    LIG   0.0000
  44 H           -3.4830     3.4830    -0.4284 H            1    LIG   0.0000
  45 H            2.9535     3.2393     1.3854 H            1    LIG   0.0000
  46 H            3.9314     2.9820     0.1032 H            1    LIG   0.0000
  47 H            4.0201     1.7090     2.6302 H            1    LIG   0.0000
  48 H            5.1585     2.6618     1.9498 H            1    LIG   0.0000
  49 H            5.8802     0.4486     2.1397 H            1    LIG   0.0000
  50 H            5.8518     0.9381     0.5820 H            1    LIG   0.0000
  51 H            5.0720    -1.3501     0.9487 H            1    LIG   0.0000
  52 H            3.7570    -0.7082     1.6736 H            1    LIG   0.0000
  53 H            4.4612     0.3446    -0.8655 H            1    LIG   0.0000
  54 H            3.7934    -1.1456    -0.8599 H            1    LIG   0.0000
  55 H            0.2819    -0.1259    -1.5274 H            1    LIG   0.0000
  56 H           -0.6973    -0.4541    -0.2625 H            1    LIG   0.0000
  57 H            1.3991    -1.4282     3.5483 H            1    LIG   0.0000
  58 H            2.3239    -4.8610     0.6921 H            1    LIG   0.0000
  59 H            2.2280    -4.2857    -0.8332 H            1    LIG   0.0000
  60 H           -0.2214    -4.5993     0.5813 H            1    LIG   0.0000
  61 H            0.0509    -4.7812    -1.0185 H            1    LIG   0.0000
  62 H            2.3328    -6.6449    -0.9458 H            1    LIG   0.0000
  63 H            2.5215    -9.0137    -0.6372 H            1    LIG   0.0000
  64 H            0.8353   -10.1979     0.5718 H            1    LIG   0.0000
  65 H           -1.0414    -9.0299     1.4765 H            1    LIG   0.0000
  66 H           -1.2386    -6.6611     1.1705 H            1    LIG   0.0000
@<TRIPOS>BOND
   1        1        2 1
   2        2        3 2
   3        3        4 1
   4        4        5 2
   5        5        6 1
   6        6        7 1
   7        7        8 2
   8        7        9 1
   9        9       10 2
  10       10       11 1
  11       11       12 2
  12       12        2 1
  13       12        6 1
  14       10       13 1
  15       13       14 1
  16       14       15 1
  17       15       16 1
  18       16       17 1
  19       17       18 1
  20       18       19 1
  21       19       13 1
  22       19       20 1
  23       20       21 1
  24       21        9 1
  25       20       22 1
  26       22       23 2
  27       22       24 am
  28       24       25 am
  29       25       26 2
  30       25       27 am
  31       27       28 1
  32       28       29 1
  33       29       30 1
  34       30       31 ar
  35       31       32 ar
  36       32       33 ar
  37       33       34 ar
  38       34       35 ar
  39       35       30 ar
  40       27       36 am
  41       36       20 1
  42       36       37 2
  43       19       38 1
  44        1       39 1
  45        1       40 1
  46        1       41 1
  47        3       42 1
  48        4       43 1
  49        5       44 1
  50       14       45 1
  51       14       46 1
  52       15       47 1
  53       15       48 1
  54       16       49 1
  55       16       50 1
  56       17       51 1
  57       17       52 1
  58       18       53 1
  59       18       54 1
  60       21       55 1
  61       21       56 1
  62       24       57 1
  63       28       58 1
  64       28       59 1
  65       29       60 1
  66       29       61 1
  67       31       62 1
  68       32       63 1
  69       33       64 1
  70       34       65 1
  71       35       66 1

@<TRIPOS>MOLECULE

  66   71
SMALL
USER_CHARGES
@<TRIPOS>ATOM
   1 C1          -0.4950    -2.6327    -5.0445 C.3          1    LIG   0.0000
   2 C2          -0.7575    -3.3459    -3.7264 C.2          1    LIG   0.0000
   3 C3          -1.1092    -4.6697    -3.7673 C.2          1    LIG   0.0000
   4 C4          -1.3653    -5.3755    -2.5627 C.2          1    LIG   0.0000
   5 C5          -1.2518    -4.6979    -1.3797 C.2          1    LIG   0.0000
   6 N6          -0.8944    -3.3787    -1.3321 N.pl3        1    LIG   0.0000
   7 C7          -0.8068    -2.7375    -0.1186 C.2          1    LIG   0.0000
   8 O8          -1.0074    -3.3349     0.9342 O.2          1    LIG   0.0000
   9 C9          -0.5137    -1.3441    -0.1064 C.2          1    LIG   0.0000
  10 C10         -0.2675    -0.6379    -1.2503 C.2          1    LIG   0.0000
  11 N11         -0.3396    -1.3710    -2.4113 N.2          1    LIG   0.0000
  12 C12         -0.6510    -2.6625    -2.4814 C.2          1    LIG   0.0000
  13 N13         -0.0239     0.7847    -1.2089 N.pl3        1    LIG   0.0000
  14 C14          0.3862     1.8202    -2.1845 C.3          1    LIG   0.0000
  15 C15         -0.7363     2.5926    -2.8672 C.3          1    LIG   0.0000
  16 C16         -2.0962     2.6028    -2.1603 C.3          1    LIG   0.0000
  17 C17         -2.0902     2.9209    -0.6632 C.3          1    LIG   0.0000
  18 C18         -1.6333     1.7055     0.1379 C.3          1    LIG   0.0000
  19 C19         -0.1286     1.4644     0.0759 C.3          1    LIG   0.0000
  20 C20          0.4160     0.5902     1.1973 C.3          1    LIG   0.0000
  21 C21         -0.4826    -0.6338     1.2367 C.3          1    LIG   0.0000
  22 C22          0.0790     1.2872     2.4976 C.2          1    LIG   0.0000
  23 O23         -1.0575     1.5154     2.8821 O.2          1    LIG   0.0000
  24 N24          1.0887     1.6633     3.3818 N.am         1    LIG   0.0000
  25 C25          2.4330     1.3827     3.1018 C.2          1    LIG   0.0000
  26 O26          3.2774     1.7155     3.9190 O.2          1    LIG   0.0000
  27 N27          2.8282     0.7352     1.9226 N.am         1    LIG   0.0000
  28 C28          4.2584     0.4802     1.6960 C.3          1    LIG   0.0000
  29 C29          5.0436     1.7619     1.9223 C.3          1    LIG   0.0000
  30 C30          6.2802     1.7614     1.0380 C.ar         1    LIG   0.0000
  31 C31          7.0031     0.5855     0.8663 C.ar         1    LIG   0.0000
  32 C32          8.1336     0.5943     0.0560 C.ar         1    LIG   0.0000
  33 C33          8.5304     1.7705    -0.5728 C.ar         1    LIG   0.0000
  34 C34          7.8013     2.9419    -0.3957 C.ar         1    LIG   0.0000
  35 C35          6.6697     2.9419     0.4136 C.ar         1    LIG   0.0000
  36 C36          1.9071     0.3399     0.9524 C.2          1    LIG   0.0000
  37 O37          2.3828    -0.2092    -0.0322 O.2          1    LIG   0.0000
  38 H            0.3608     2.3360     0.0474 H            1    LIG   0.0000
  39 H           -0.6189    -3.2746    -5.8012 H            1    LIG   0.0000
  40 H           -1.1355    -1.8714    -5.1449 H            1    LIG   0.0000
  41 H            0.4420    -2.2835    -5.0537 H            1    LIG   0.0000
  42 H           -1.1855    -5.1392    -4.6469 H            1    LIG   0.0000
  43 H           -1.6217    -6.3419    -2.5783 H            1    LIG   0.0000
  44 H           -1.4358    -5.1818    -0.5241 H            1    LIG   0.0000
  45 H            0.9232     1.3701    -2.8979 H            1    LIG   0.0000
  46 H            0.9607     2.4816    -1.7022 H            1    LIG   0.0000
  47 H           -0.8698     2.1939    -3.7745 H            1    LIG   0.0000
  48 H           -0.4369     3.5421    -2.9612 H            1    LIG   0.0000
  49 H           -2.5047     1.6974    -2.2761 H            1    LIG   0.0000
  50 H           -2.6680     3.2869    -2.6131 H            1    LIG   0.0000
  51 H           -1.4658     3.6827    -0.4909 H            1    LIG   0.0000
  52 H           -3.0139     3.1757    -0.3770 H            1    LIG   0.0000
  53 H           -1.8926     1.8414     1.0941 H            1    LIG   0.0000
  54 H           -2.0982     0.8966    -0.2218 H            1    LIG   0.0000
  55 H           -0.1399    -1.2665     1.9312 H            1    LIG   0.0000
  56 H           -1.4108    -0.3481     1.4750 H            1    LIG   0.0000
  57 H            0.8506     2.1402     4.2279 H            1    LIG   0.0000
  58 H            4.3963     0.1663     0.7566 H            1    LIG   0.0000
  59 H            4.5767    -0.2225     2.3323 H            1    LIG   0.0000
  60 H            4.4705     2.5487     1.6936 H            1    LIG   0.0000
  61 H            5.3200     1.8185     2.8817 H            1    LIG   0.0000
  62 H            6.7132    -0.2570     1.3205 H            1    LIG   0.0000
  63 H            8.6613    -0.2450    -0.0747 H            1    LIG   0.0000
  64 H            9.3436     1.7737    -1.1548 H            1    LIG   0.0000
  65 H            8.0907     3.7843    -0.8503 H            1    LIG   0.0000
  66 H            6.1422     3.7812     0.5451 H            1    LIG   0.0000
@<TRIPOS>BOND
   1        1        2 1
   2        2        3 2
   3        3        4 1
   4        4        5 2
   5        5        6 1
   6        6        7 1
   7        7        8 2
   8        7        9 1
   9        9       10 2
  10       10       11 1
  11       11       12 2
  12       12        2 1
  13       12        6 1
  14       10       13 1
  15       13       14 1
  16       14       15 1
  17       15       16 1
  18       16       17 1
  19       17       18 1
  20       18       19 1
  21       19       13 1
  22       19       20 1
  23       20       21 1
  24       21        9 1
  25       20       22 1
  26       22       23 2
  27       22       24 am
  28       24       25 am
  29       25       26 2
  30       25       27 am
  31       27       28 1
  32       28       29 1
  33       29       30 1
  34       30       31 ar
  35       31       32 ar
  36       32       33 ar
  37       33       34 ar
  38       34       35 ar
  39       35       30 ar
  40       27       36 am
  41       36       20 1
  42       36       37 2
  43       19       38 1
  44        1       39 1
  45        1       40 1
  46        1       41 1
  47        3       42 1
  48        4       43 1
  49        5       44 1
  50       14       45 1
  51       14       46 1
  52       15       47 1
  53       15       48 1
  54       16       49 1
  55       16       50 1
  56       17       51 1
  57       17       52 1
  58       18       53 1
  59       18       54 1
  60       21       55 1
  61       21       56 1
  62       24       57 1
  63       28       58 1
  64       28       59 1
  65       29       60 1
  66       29       61 1
  67       31       62 1
  68       32       63 1
  69       33       64 1
  70       34       65 1
  71       35       66 1

@<TRIPOS>MOLECULE

  66   71
SMALL
USER_CHARGES
@<TRIPOS>ATOM
   1 C1          -0.4950    -2.6327    -5.0445 C.3          1    LIG   0.0000
   2 C2          -0.7575    -3.3459    -3.7264 C.2          1    LIG   0.0000
   3 C3          -1.1092    -4.6697    -3.7673 C.2          1    LIG   0.0000
   4 C4          -1.3653    -5.3755    -2.5627 C.2          1    LIG   0.0000
   5 C5          -1.2518    -4.6979    -1.3797 C.2          1    LIG   0.0000
   6 N6          -0.8944    -3.3787    -1.3321 N.pl3        1    LIG   0.0000
   7 C7          -0.8068    -2.7375    -0.1186 C.2          1    LIG   0.0000
   8 O8          -1.0074    -3.3349     0.9342 O.2          1    LIG   0.0000
   9 C9          -0.5137    -1.3441    -0.1064 C.2          1    LIG   0.0000
  10 C10         -0.2675    -0.6379    -1.2503 C.2          1    LIG   0.0000
  11 N11         -0.3396    -1.3710    -2.4113 N.2          1    LIG   0.0000
  12 C12         -0.6510    -2.6625    -2.4814 C.2          1    LIG   0.0000
  13 N13         -0.0239     0.7847    -1.2089 N.pl3        1    LIG   0.0000
  14 C14          0.3862     1.8202    -2.1845 C.3          1    LIG   0.0000
  15 C15         -0.7363     2.5926    -2.8672 C.3          1    LIG   0.0000
  16 C16         -2.0962     2.6028    -2.1603 C.3          1    LIG   0.0000
  17 C17         -2.0902     2.9209    -0.6632 C.3          1    LIG   0.0000
  18 C18         -1.6333     1.7055     0.1379 C.3          1    LIG   0.0000
  19 C19         -0.1286     1.4644     0.0759 C.3          1    LIG   0.0000
  20 C20          0.4160     0.5902     1.1973 C.3          1    LIG   0.0000
  21 C21         -0.4826    -0.6338     1.2367 C.3          1    LIG   0.0000
  22 C22          0.0790     1.2872     2.4976 C.2          1    LIG   0.0000
  23 O23         -1.0575     1.5154     2.8821 O.2          1    LIG   0.0000
  24 N24          1.0887     1.6633     3.3818 N.am         1    LIG   0.0000
  25 C25          2.4330     1.3827     3.1018 C.2          1    LIG   0.0000
  26 O26          3.2774     1.7155     3.9190 O.2          1    LIG   0.0000
  27 N27          2.8282     0.7352     1.9226 N.am         1    LIG   0.0000
  28 C28          4.2584     0.4802     1.6960 C.3          1    LIG   0.0000
  29 C29          5.0436     1.7619     1.9223 C.3          1    LIG   0.0000
  30 C30          6.4386     1.4202     2.4210 C.ar         1    LIG   0.0000
  31 C31          6.6074     0.3908     3.3412 C.ar         1    LIG   0.0000
  32 C32          7.8871     0.0854     3.7927 C.ar         1    LIG   0.0000
  33 C33          8.9813     0.8061     3.3240 C.ar         1    LIG   0.0000
  34 C34          8.8032     1.8338     2.4036 C.ar         1    LIG   0.0000
  35 C35          7.5265     2.1462     1.9473 C.ar         1    LIG   0.0000
  36 C36          1.9071     0.3399     0.9524 C.2          1    LIG   0.0000
  37 O37          2.3828    -0.2092    -0.0322 O.2          1    LIG   0.0000
  38 H            0.3608     2.3360     0.0474 H            1    LIG   0.0000
  39 H           -0.6189    -3.2746    -5.8012 H            1    LIG   0.0000
  40 H           -1.1355    -1.8714    -5.1449 H            1    LIG   0.0000
  41 H            0.4420    -2.2835    -5.0537 H            1    LIG   0.0000
  42 H           -1.1855    -5.1392    -4.6469 H            1    LIG   0.0000
  43 H           -1.6217    -6.3419    -2.5783 H            1    LIG   0.0000
  44 H           -1.4358    -5.1818    -0.5241 H            1    LIG   0.0000
  45 H            0.9232     1.3701    -2.8979 H            1    LIG   0.0000
  46 H            0.9607     2.4816    -1.7022 H            1    LIG   0.0000
  47 H           -0.8698     2.1939    -3.7745 H            1    LIG   0.0000
  48 H           -0.4369     3.5421    -2.9612 H            1    LIG   0.0000
  49 H           -2.5047     1.6974    -2.2761 H            1    LIG   0.0000
  50 H           -2.6680     3.2869    -2.6131 H            1    LIG   0.0000
  51 H           -1.4658     3.6827    -0.4909 H            1    LIG   0.0000
  52 H           -3.0139     3.1757    -0.3770 H            1    LIG   0.0000
  53 H           -1.8926     1.8414     1.0941 H            1    LIG   0.0000
  54 H           -2.0982     0.8966    -0.2218 H            1    LIG   0.0000
  55 H           -0.1399    -1.2665     1.9312 H            1    LIG   0.0000
  56 H           -1.4108    -0.3481     1.4750 H            1    LIG   0.0000
  57 H            0.8506     2.1402     4.2279 H            1    LIG   0.0000
  58 H            4.3963     0.1663     0.7566 H            1    LIG   0.0000
  59 H            4.5767    -0.2225     2.3323 H            1    LIG   0.0000
  60 H            5.1117     2.2674     1.0622 H            1    LIG   0.0000
  61 H            4.5746     2.3243     2.6033 H            1    LIG   0.0000
  62 H            5.8175    -0.1239     3.6745 H            1    LIG   0.0000
  63 H            8.0208    -0.6524     4.4544 H            1    LIG   0.0000
  64 H            9.9001     0.5842     3.6504 H            1    LIG   0.0000
  65 H            9.5930     2.3482     2.0697 H            1    LIG   0.0000
  66 H            7.3924     2.8844     1.2862 H            1    LIG   0.0000
@<TRIPOS>BOND
   1        1        2 1
   2        2        3 2
   3        3        4 1
   4        4        5 2
   5        5        6 1
   6        6        7 1
   7        7        8 2
   8        7        9 1
   9        9       10 2
  10       10       11 1
  11       11       12 2
  12       12        2 1
  13       12        6 1
  14       10       13 1
  15       13       14 1
  16       14       15 1
  17       15       16 1
  18       16       17 1
  19       17       18 1
  20       18       19 1
  21       19       13 1
  22       19       20 1
  23       20       21 1
  24       21        9 1
  25       20       22 1
  26       22       23 2
  27       22       24 am
  28       24       25 am
  29       25       26 2
  30       25       27 am
  31       27       28 1
  32       28       29 1
  33       29       30 1
  34       30       31 ar
  35       31       32 ar
  36       32       33 ar
  37       33       34 ar
  38       34       35 ar
  39       35       30 ar
  40       27       36 am
  41       36       20 1
  42       36       37 2
  43       19       38 1
  44        1       39 1
  45        1       40 1
  46        1       41 1
  47        3       42 1
  48        4       43 1
  49        5       44 1
  50       14       45 1
  51       14       46 1
  52       15       47 1
  53       15       48 1
  54       16       49 1
  55       16       50 1
  56       17       51 1
  57       17       52 1
  58       18       53 1
  59       18       54 1
  60       21       55 1
  61       21       56 1
  62       24       57 1
  63       28       58 1
  64       28       59 1
  65       29       60 1
  66       29       61 1
  67       31       62 1
  68       32       63 1
  69       33       64 1
  70       34       65 1
  71       35       66 1

@<TRIPOS>MOLECULE

  66   71
SMALL
USER_CHARGES
@<TRIPOS>ATOM
   1 C1          -0.4950    -2.6327    -5.0445 C.3          1    LIG   0.0000
   2 C2          -0.7575    -3.3459    -3.7264 C.2          1    LIG   0.0000
   3 C3          -1.1092    -4.6697    -3.7673 C.2          1    LIG   0.0000
   4 C4          -1.3653    -5.3755    -2.5627 C.2          1    LIG   0.0000
   5 C5          -1.2518    -4.6979    -1.3797 C.2          1    LIG   0.0000
   6 N6          -0.8944    -3.3787    -1.3321 N.pl3        1    LIG   0.0000
   7 C7          -0.8068    -2.7375    -0.1186 C.2          1    LIG   0.0000
   8 O8          -1.0074    -3.3349     0.9342 O.2          1    LIG   0.0000
   9 C9          -0.5137    -1.3441    -0.1064 C.2          1    LIG   0.0000
  10 C10         -0.2675    -0.6379    -1.2503 C.2          1    LIG   0.0000
  11 N11         -0.3396    -1.3710    -2.4113 N.2          1    LIG   0.0000
  12 C12         -0.6510    -2.6625    -2.4814 C.2          1    LIG   0.0000
  13 N13         -0.0239     0.7847    -1.2089 N.pl3        1    LIG   0.0000
  14 C14          0.3862     1.8202    -2.1845 C.3          1    LIG   0.0000
  15 C15         -0.7363     2.5926    -2.8672 C.3          1    LIG   0.0000
  16 C16         -2.0962     2.6028    -2.1603 C.3          1    LIG   0.0000
  17 C17         -2.0902     2.9209    -0.6632 C.3          1    LIG   0.0000
  18 C18         -1.6333     1.7055     0.1379 C.3          1    LIG   0.0000
  19 C19         -0.1286     1.4644     0.0759 C.3          1    LIG   0.0000
  20 C20          0.4160     0.5902     1.1973 C.3          1    LIG   0.0000
  21 C21         -0.4826    -0.6338     1.2367 C.3          1    LIG   0.0000
  22 C22          0.0790     1.2872     2.4976 C.2          1    LIG   0.0000
  23 O23         -1.0575     1.5154     2.8821 O.2          1    LIG   0.0000
  24 N24          1.0887     1.6633     3.3818 N.am         1    LIG   0.0000
  25 C25          2.4330     1.3827     3.1018 C.2          1    LIG   0.0000
  26 O26          3.2774     1.7155     3.9190 O.2          1    LIG   0.0000
  27 N27          2.8282     0.7352     1.9226 N.am         1    LIG   0.0000
  28 C28          4.2584     0.4802     1.6960 C.3          1    LIG   0.0000
  29 C29          4.6461     0.9662     0.3089 C.3          1    LIG   0.0000
  30 C30          6.1019     1.4044     0.3141 C.ar         1    LIG   0.0000
  31 C31          6.4801     2.5433    -0.3893 C.ar         1    LIG   0.0000
  32 C32          7.8142     2.9367    -0.3798 C.ar         1    LIG   0.0000
  33 C33          8.7541     2.1939     0.3282 C.ar         1    LIG   0.0000
  34 C34          8.3669     1.0564     1.0291 C.ar         1    LIG   0.0000
  35 C35          7.0346     0.6556     1.0242 C.ar         1    LIG   0.0000
  36 C36          1.9071     0.3399     0.9524 C.2          1    LIG   0.0000
  37 O37          2.3828    -0.2092    -0.0322 O.2          1    LIG   0.0000
  38 H            0.3608     2.3360     0.0474 H            1    LIG   0.0000
  39 H           -0.6189    -3.2746    -5.8012 H            1    LIG   0.0000
  40 H           -1.1355    -1.8714    -5.1449 H            1    LIG   0.0000
  41 H            0.4420    -2.2835    -5.0537 H            1    LIG   0.0000
  42 H           -1.1855    -5.1392    -4.6469 H            1    LIG   0.0000
  43 H           -1.6217    -6.3419    -2.5783 H            1    LIG   0.0000
  44 H           -1.4358    -5.1818    -0.5241 H            1    LIG   0.0000
  45 H            0.9232     1.3701    -2.8979 H            1    LIG   0.0000
  46 H            0.9607     2.4816    -1.7022 H            1    LIG   0.0000
  47 H           -0.8698     2.1939    -3.7745 H            1    LIG   0.0000
  48 H           -0.4369     3.5421    -2.9612 H            1    LIG   0.0000
  49 H           -2.5047     1.6974    -2.2761 H            1    LIG   0.0000
  50 H           -2.6680     3.2869    -2.6131 H            1    LIG   0.0000
  51 H           -1.4658     3.6827    -0.4909 H            1    LIG   0.0000
  52 H           -3.0139     3.1757    -0.3770 H            1    LIG   0.0000
  53 H           -1.8926     1.8414     1.0941 H            1    LIG   0.0000
  54 H           -2.0982     0.8966    -0.2218 H            1    LIG   0.0000
  55 H           -0.1399    -1.2665     1.9312 H            1    LIG   0.0000
  56 H           -1.4108    -0.3481     1.4750 H            1    LIG   0.0000
  57 H            0.8506     2.1402     4.2279 H            1    LIG   0.0000
  58 H            4.4375    -0.5010     1.7676 H            1    LIG   0.0000
  59 H            4.7970     0.9683     2.3828 H            1    LIG   0.0000
  60 H            4.5237     0.2244    -0.3505 H            1    LIG   0.0000
  61 H            4.0662     1.7394     0.0524 H            1    LIG   0.0000
  62 H            5.8004     3.0734    -0.8962 H            1    LIG   0.0000
  63 H            8.0980     3.7535    -0.8820 H            1    LIG   0.0000
  64 H            9.7126     2.4792     0.3332 H            1    LIG   0.0000
  65 H            9.0464     0.5266     1.5366 H            1    LIG   0.0000
  66 H            6.7507    -0.1616     1.5257 H            1    LIG   0.0000
@<TRIPOS>BOND
   1        1        2 1
   2        2        3 2
   3        3        4 1
   4        4        5 2
   5        5        6 1
   6        6        7 1
   7        7        8 2
   8        7        9 1
   9        9       10 2
  10       10       11 1
  11       11       12 2
  12       12        2 1
  13       12        6 1
  14       10       13 1
  15       13       14 1
  16       14       15 1
  17       15       16 1
  18       16       17 1
  19       17       18 1
  20       18       19 1
  21       19       13 1
  22       19       20 1
  23       20       21 1
  24       21        9 1
  25       20       22 1
  26       22       23 2
  27       22       24 am
  28       24       25 am
  29       25       26 2
  30       25       27 am
  31       27       28 1
  32       28       29 1
  33       29       30 1
  34       30       31 ar
  35       31       32 ar
  36       32       33 ar
  37       33       34 ar
  38       34       35 ar
  39       35       30 ar
  40       27       36 am
  41       36       20 1
  42       36       37 2
  43       19       38 1
  44        1       39 1
  45        1       40 1
  46        1       41 1
  47        3       42 1
  48        4       43 1
  49        5       44 1
  50       14       45 1
  51       14       46 1
  52       15       47 1
  53       15       48 1
  54       16       49 1
  55       16       50 1
  56       17       51 1
  57       17       52 1
  58       18       53 1
  59       18       54 1
  60       21       55 1
  61       21       56 1
  62       24       57 1
  63       28       58 1
  64       28       59 1
  65       29       60 1
  66       29       61 1
  67       31       62 1
  68       32       63 1
  69       33       64 1
  70       34       65 1
  71       35       66 1

@<TRIPOS>MOLECULE

  66   71
SMALL
USER_CHARGES
@<TRIPOS>ATOM
   1 C1          -0.4950    -2.6327    -5.0445 C.3          1    LIG   0.0000
   2 C2          -0.7575    -3.3459    -3.7264 C.2          1    LIG   0.0000
   3 C3          -1.1092    -4.6697    -3.7673 C.2          1    LIG   0.0000
   4 C4          -1.3653    -5.3755    -2.5627 C.2          1    LIG   0.0000
   5 C5          -1.2518    -4.6979    -1.3797 C.2          1    LIG   0.0000
   6 N6          -0.8944    -3.3787    -1.3321 N.pl3        1    LIG   0.0000
   7 C7          -0.8068    -2.7375    -0.1186 C.2          1    LIG   0.0000
   8 O8          -1.0074    -3.3349     0.9342 O.2          1    LIG   0.0000
   9 C9          -0.5137    -1.3441    -0.1064 C.2          1    LIG   0.0000
  10 C10         -0.2675    -0.6379    -1.2503 C.2          1    LIG   0.0000
  11 N11         -0.3396    -1.3710    -2.4113 N.2          1    LIG   0.0000
  12 C12         -0.6510    -2.6625    -2.4814 C.2          1    LIG   0.0000
  13 N13         -0.0239     0.7847    -1.2089 N.pl3        1    LIG   0.0000
  14 C14          0.3862     1.8202    -2.1845 C.3          1    LIG   0.0000
  15 C15         -0.7363     2.5926    -2.8672 C.3          1    LIG   0.0000
  16 C16         -2.0962     2.6028    -2.1603 C.3          1    LIG   0.0000
  17 C17         -2.0902     2.9209    -0.6632 C.3          1    LIG   0.0000
  18 C18         -1.6333     1.7055     0.1379 C.3          1    LIG   0.0000
  19 C19         -0.1286     1.4644     0.0759 C.3          1    LIG   0.0000
  20 C20          0.4160     0.5902     1.1973 C.3          1    LIG   0.0000
  21 C21         -0.4826    -0.6338     1.2367 C.3          1    LIG   0.0000
  22 C22          0.0790     1.2872     2.4976 C.2          1    LIG   0.0000
  23 O23         -1.0575     1.5154     2.8821 O.2          1    LIG   0.0000
  24 N24          1.0887     1.6633     3.3818 N.am         1    LIG   0.0000
  25 C25          2.4330     1.3827     3.1018 C.2          1    LIG   0.0000
  26 O26          3.2774     1.7155     3.9190 O.2          1    LIG   0.0000
  27 N27          2.8282     0.7352     1.9226 N.am         1    LIG   0.0000
  28 C28          4.2584     0.4802     1.6960 C.3          1    LIG   0.0000
  29 C29          4.8564    -0.1815     2.9268 C.3          1    LIG   0.0000
  30 C30          6.3215     0.2055     3.0489 C.ar         1    LIG   0.0000
  31 C31          7.1125     0.2745     1.9068 C.ar         1    LIG   0.0000
  32 C32          8.4521     0.6286     2.0277 C.ar         1    LIG   0.0000
  33 C33          8.9877     0.9097     3.2809 C.ar         1    LIG   0.0000
  34 C34          8.1892     0.8386     4.4178 C.ar         1    LIG   0.0000
  35 C35          6.8484     0.4844     4.3057 C.ar         1    LIG   0.0000
  36 C36          1.9071     0.3399     0.9524 C.2          1    LIG   0.0000
  37 O37          2.3828    -0.2092    -0.0322 O.2          1    LIG   0.0000
  38 H            0.3608     2.3360     0.0474 H            1    LIG   0.0000
  39 H           -0.6189    -3.2746    -5.8012 H            1    LIG   0.0000
  40 H           -1.1355    -1.8714    -5.1449 H            1    LIG   0.0000
  41 H            0.4420    -2.2835    -5.0537 H            1    LIG   0.0000
  42 H           -1.1855    -5.1392    -4.6469 H            1    LIG   0.0000
  43 H           -1.6217    -6.3419    -2.5783 H            1    LIG   0.0000
  44 H           -1.4358    -5.1818    -0.5241 H            1    LIG   0.0000
  45 H            0.9232     1.3701    -2.8979 H            1    LIG   0.0000
  46 H            0.9607     2.4816    -1.7022 H            1    LIG   0.0000
  47 H           -0.8698     2.1939    -3.7745 H            1    LIG   0.0000
  48 H           -0.4369     3.5421    -2.9612 H            1    LIG   0.0000
  49 H           -2.5047     1.6974    -2.2761 H            1    LIG   0.0000
  50 H           -2.6680     3.2869    -2.6131 H            1    LIG   0.0000
  51 H           -1.4658     3.6827    -0.4909 H            1    LIG   0.0000
  52 H           -3.0139     3.1757    -0.3770 H            1    LIG   0.0000
  53 H           -1.8926     1.8414     1.0941 H            1    LIG   0.0000
  54 H           -2.0982     0.8966    -0.2218 H            1    LIG   0.0000
  55 H           -0.1399    -1.2665     1.9312 H            1    LIG   0.0000
  56 H           -1.4108    -0.3481     1.4750 H            1    LIG   0.0000
  57 H            0.8506     2.1402     4.2279 H            1    LIG   0.0000
  58 H            4.7278     1.3458     1.5217 H            1    LIG   0.0000
  59 H            4.3684    -0.1235     0.9064 H            1    LIG   0.0000
  60 H            4.3625     0.1221     3.7416 H            1    LIG   0.0000
  61 H            4.7800    -1.1749     2.8416 H            1    LIG   0.0000
  62 H            6.7223     0.0716     1.0087 H            1    LIG   0.0000
  63 H            9.0306     0.6813     1.2137 H            1    LIG   0.0000
  64 H            9.9511     1.1641     3.3647 H            1    LIG   0.0000
  65 H            8.5790     1.0420     5.3159 H            1    LIG   0.0000
  66 H            6.2699     0.4310     5.1197 H            1    LIG   0.0000
@<TRIPOS>BOND
   1        1        2 1
   2        2        3 2
   3        3        4 1
   4        4        5 2
   5        5        6 1
   6        6        7 1
   7        7        8 2
   8        7        9 1
   9        9       10 2
  10       10       11 1
  11       11       12 2
  12       12        2 1
  13       12        6 1
  14       10       13 1
  15       13       14 1
  16       14       15 1
  17       15       16 1
  18       16       17 1
  19       17       18 1
  20       18       19 1
  21       19       13 1
  22       19       20 1
  23       20       21 1
  24       21        9 1
  25       20       22 1
  26       22       23 2
  27       22       24 am
  28       24       25 am
  29       25       26 2
  30       25       27 am
  31       27       28 1
  32       28       29 1
  33       29       30 1
  34       30       31 ar
  35       31       32 ar
  36       32       33 ar
  37       33       34 ar
  38       34       35 ar
  39       35       30 ar
  40       27       36 am
  41       36       20 1
  42       36       37 2
  43       19       38 1
  44        1       39 1
  45        1       40 1
  46        1       41 1
  47        3       42 1
  48        4       43 1
  49        5       44 1
  50       14       45 1
  51       14       46 1
  52       15       47 1
  53       15       48 1
  54       16       49 1
  55       16       50 1
  56       17       51 1
  57       17       52 1
  58       18       53 1
  59       18       54 1
  60       21       55 1
  61       21       56 1
  62       24       57 1
  63       28       58 1
  64       28       59 1
  65       29       60 1
  66       29       61 1
  67       31       62 1
  68       32       63 1
  69       33       64 1
  70       34       65 1
  71       35       66 1

@<TRIPOS>MOLECULE

  66   71
SMALL
USER_CHARGES
@<TRIPOS>ATOM
   1 C1          -0.4950    -2.6327    -5.0445 C.3          1    LIG   0.0000
   2 C2          -0.7575    -3.3459    -3.7264 C.2          1    LIG   0.0000
   3 C3          -1.1092    -4.6697    -3.7673 C.2          1    LIG   0.0000
   4 C4          -1.3653    -5.3755    -2.5627 C.2          1    LIG   0.0000
   5 C5          -1.2518    -4.6979    -1.3797 C.2          1    LIG   0.0000
   6 N6          -0.8944    -3.3787    -1.3321 N.pl3        1    LIG   0.0000
   7 C7          -0.8068    -2.7375    -0.1186 C.2          1    LIG   0.0000
   8 O8          -1.0074    -3.3349     0.9342 O.2          1    LIG   0.0000
   9 C9          -0.5137    -1.3441    -0.1064 C.2          1    LIG   0.0000
  10 C10         -0.2675    -0.6379    -1.2503 C.2          1    LIG   0.0000
  11 N11         -0.3396    -1.3710    -2.4113 N.2          1    LIG   0.0000
  12 C12         -0.6510    -2.6625    -2.4814 C.2          1    LIG   0.0000
  13 N13         -0.0239     0.7847    -1.2089 N.pl3        1    LIG   0.0000
  14 C14          0.3862     1.8202    -2.1845 C.3          1    LIG   0.0000
  15 C15         -0.7363     2.5926    -2.8672 C.3          1    LIG   0.0000
  16 C16         -2.0962     2.6028    -2.1603 C.3          1    LIG   0.0000
  17 C17         -2.0902     2.9209    -0.6632 C.3          1    LIG   0.0000
  18 C18         -1.6333     1.7055     0.1379 C.3          1    LIG   0.0000
  19 C19         -0.1286     1.4644     0.0759 C.3          1    LIG   0.0000
  20 C20          0.4160     0.5902     1.1973 C.3          1    LIG   0.0000
  21 C21         -0.4826    -0.6338     1.2367 C.3          1    LIG   0.0000
  22 C22          0.0790     1.2872     2.4976 C.2          1    LIG   0.0000
  23 O23         -1.0575     1.5154     2.8821 O.2          1    LIG   0.0000
  24 N24          1.0887     1.6633     3.3818 N.am         1    LIG   0.0000
  25 C25          2.4330     1.3827     3.1018 C.2          1    LIG   0.0000
  26 O26          3.2774     1.7155     3.9190 O.2          1    LIG   0.0000
  27 N27          2.8282     0.7352     1.9226 N.am         1    LIG   0.0000
  28 C28          4.2584     0.4802     1.6960 C.3          1    LIG   0.0000
  29 C29          4.8564    -0.1815     2.9268 C.3          1    LIG   0.0000
  30 C30          6.0061    -1.0841     2.5089 C.ar         1    LIG   0.0000
  31 C31          6.1703    -2.3197     3.1263 C.ar         1    LIG   0.0000
  32 C32          7.2253    -3.1390     2.7382 C.ar         1    LIG   0.0000
  33 C33          8.1023    -2.7201     1.7422 C.ar         1    LIG   0.0000
  34 C34          7.9302    -1.4829     1.1300 C.ar         1    LIG   0.0000
  35 C35          6.8780    -0.6571     1.5127 C.ar         1    LIG   0.0000
  36 C36          1.9071     0.3399     0.9524 C.2          1    LIG   0.0000
  37 O37          2.3828    -0.2092    -0.0322 O.2          1    LIG   0.0000
  38 H            0.3608     2.3360     0.0474 H            1    LIG   0.0000
  39 H           -0.6189    -3.2746    -5.8012 H            1    LIG   0.0000
  40 H           -1.1355    -1.8714    -5.1449 H            1    LIG   0.0000
  41 H            0.4420    -2.2835    -5.0537 H            1    LIG   0.0000
  42 H           -1.1855    -5.1392    -4.6469 H            1    LIG   0.0000
  43 H           -1.6217    -6.3419    -2.5783 H            1    LIG   0.0000
  44 H           -1.4358    -5.1818    -0.5241 H            1    LIG   0.0000
  45 H            0.9232     1.3701    -2.8979 H            1    LIG   0.0000
  46 H            0.9607     2.4816    -1.7022 H            1    LIG   0.0000
  47 H           -0.8698     2.1939    -3.7745 H            1    LIG   0.0000
  48 H           -0.4369     3.5421    -2.9612 H            1    LIG   0.0000
  49 H           -2.5047     1.6974    -2.2761 H            1    LIG   0.0000
  50 H           -2.6680     3.2869    -2.6131 H            1    LIG   0.0000
  51 H           -1.4658     3.6827    -0.4909 H            1    LIG   0.0000
  52 H           -3.0139     3.1757    -0.3770 H            1    LIG   0.0000
  53 H           -1.8926     1.8414     1.0941 H            1    LIG   0.0000
  54 H           -2.0982     0.8966    -0.2218 H            1    LIG   0.0000
  55 H           -0.1399    -1.2665     1.9312 H            1    LIG   0.0000
  56 H           -1.4108    -0.3481     1.4750 H            1    LIG   0.0000
  57 H            0.8506     2.1402     4.2279 H            1    LIG   0.0000
  58 H            4.7278     1.3458     1.5217 H            1    LIG   0.0000
  59 H            4.3684    -0.1235     0.9064 H            1    LIG   0.0000
  60 H            5.1951     0.5218     3.5520 H            1    LIG   0.0000
  61 H            4.1550    -0.7262     3.3864 H            1    LIG   0.0000
  62 H            5.5370    -2.6158     3.8412 H            1    LIG   0.0000
  63 H            7.3536    -4.0293     3.1751 H            1    LIG   0.0000
  64 H            8.8598    -3.3113     1.4653 H            1    LIG   0.0000
  65 H            8.5631    -1.1870     0.4145 H            1    LIG   0.0000
  66 H            6.7500     0.2336     1.0765 H            1    LIG   0.0000
@<TRIPOS>BOND
   1        1        2 1
   2        2        3 2
   3        3        4 1
   4        4        5 2
   5        5        6 1
   6        6        7 1
   7        7        8 2
   8        7        9 1
   9        9       10 2
  10       10       11 1
  11       11       12 2
  12       12        2 1
  13       12        6 1
  14       10       13 1
  15       13       14 1
  16       14       15 1
  17       15       16 1
  18       16       17 1
  19       17       18 1
  20       18       19 1
  21       19       13 1
  22       19       20 1
  23       20       21 1
  24       21        9 1
  25       20       22 1
  26       22       23 2
  27       22       24 am
  28       24       25 am
  29       25       26 2
  30       25       27 am
  31       27       28 1
  32       28       29 1
  33       29       30 1
  34       30       31 ar
  35       31       32 ar
  36       32       33 ar
  37       33       34 ar
  38       34       35 ar
  39       35       30 ar
  40       27       36 am
  41       36       20 1
  42       36       37 2
  43       19       38 1
  44        1       39 1
  45        1       40 1
  46        1       41 1
  47        3       42 1
  48        4       43 1
  49        5       44 1
  50       14       45 1
  51       14       46 1
  52       15       47 1
  53       15       48 1
  54       16       49 1
  55       16       50 1
  56       17       51 1
  57       17       52 1
  58       18       53 1
  59       18       54 1
  60       21       55 1
  61       21       56 1
  62       24       57 1
  63       28       58 1
  64       28       59 1
  65       29       60 1
  66       29       61 1
  67       31       62 1
  68       32       63 1
  69       33       64 1
  70       34       65 1
  71       35       66 1

