@<TRIPOS>MOLECULE
*****
 66 71 0 0 0
SMALL
USER_CHARGES

@<TRIPOS>ATOM
      1 C1         -0.4950   -2.6327   -5.0445 C.3     1  LIG1        0.0000
      2 C2         -0.7575   -3.3459   -3.7264 C.2     1  LIG1        0.0000
      3 C3         -1.1092   -4.6697   -3.7673 C.2     1  LIG1        0.0000
      4 C4         -1.3653   -5.3755   -2.5627 C.2     1  LIG1        0.0000
      5 C5         -1.2518   -4.6979   -1.3797 C.2     1  LIG1        0.0000
      6 N6         -0.8944   -3.3787   -1.3321 N.am    1  LIG1        0.0000
      7 C7         -0.8068   -2.7375   -0.1186 C.2     1  LIG1        0.0000
      8 O8         -1.0074   -3.3349    0.9342 O.2     1  LIG1        0.0000
      9 C9         -0.5137   -1.3441   -0.1064 C.2     1  LIG1        0.0000
     10 C10        -0.2675   -0.6379   -1.2503 C.2     1  LIG1        0.0000
     11 N11        -0.3396   -1.3710   -2.4113 N.2     1  LIG1        0.0000
     12 C12        -0.6510   -2.6625   -2.4814 C.2     1  LIG1        0.0000
     13 N13        -0.0239    0.7847   -1.2089 N.pl3   1  LIG1        0.0000
     14 C14         0.3862    1.8202   -2.1845 C.3     1  LIG1        0.0000
     15 C15        -0.7363    2.5926   -2.8672 C.3     1  LIG1        0.0000
     16 C16        -2.0962    2.6028   -2.1603 C.3     1  LIG1        0.0000
     17 C17        -2.0902    2.9209   -0.6632 C.3     1  LIG1        0.0000
     18 C18        -1.6333    1.7055    0.1379 C.3     1  LIG1        0.0000
     19 C19        -0.1286    1.4644    0.0759 C.3     1  LIG1        0.0000
     20 C20         0.4160    0.5902    1.1973 C.3     1  LIG1        0.0000
     21 C21        -0.4826   -0.6338    1.2367 C.3     1  LIG1        0.0000
     22 C22         0.0790    1.2872    2.4976 C.2     1  LIG1        0.0000
     23 O23        -1.0575    1.5154    2.8821 O.2     1  LIG1        0.0000
     24 N24         1.0887    1.6633    3.3818 N.am    1  LIG1        0.0000
     25 C25         2.4330    1.3827    3.1018 C.2     1  LIG1        0.0000
     26 O26         3.2774    1.7155    3.9190 O.2     1  LIG1        0.0000
     27 N27         2.8282    0.7352    1.9226 N.am    1  LIG1        0.0000
     28 C28         4.2584    0.4802    1.6960 C.3     1  LIG1        0.0000
     29 C29         4.8564   -0.1815    2.9268 C.3     1  LIG1        0.0000
     30 C30         6.3215    0.2055    3.0489 C.3     1  LIG1        0.0000
     31 C31         7.1125    0.2745    1.9068 C.3     1  LIG1        0.0000
     32 C32         8.4521    0.6286    2.0277 C.3     1  LIG1        0.0000
     33 C33         8.9877    0.9097    3.2809 C.3     1  LIG1        0.0000
     34 C34         8.1892    0.8386    4.4178 C.3     1  LIG1        0.0000
     35 C35         6.8484    0.4844    4.3057 C.3     1  LIG1        0.0000
     36 C36         1.9071    0.3399    0.9524 C.2     1  LIG1        0.0000
     37 O37         2.3828   -0.2092   -0.0322 O.2     1  LIG1        0.0000
     38 H           0.3608    2.3360    0.0474 H       1  LIG1        0.0000
     39 H          -0.6189   -3.2746   -5.8012 H       1  LIG1        0.0000
     40 H          -1.1355   -1.8714   -5.1449 H       1  LIG1        0.0000
     41 H           0.4420   -2.2835   -5.0537 H       1  LIG1        0.0000
     42 H          -1.1855   -5.1392   -4.6469 H       1  LIG1        0.0000
     43 H          -1.6217   -6.3419   -2.5783 H       1  LIG1        0.0000
     44 H          -1.4358   -5.1818   -0.5241 H       1  LIG1        0.0000
     45 H           0.9232    1.3701   -2.8979 H       1  LIG1        0.0000
     46 H           0.9607    2.4816   -1.7022 H       1  LIG1        0.0000
     47 H          -0.8698    2.1939   -3.7745 H       1  LIG1        0.0000
     48 H          -0.4369    3.5421   -2.9612 H       1  LIG1        0.0000
     49 H          -2.5047    1.6974   -2.2761 H       1  LIG1        0.0000
     50 H          -2.6680    3.2869   -2.6131 H       1  LIG1        0.0000
     51 H          -1.4658    3.6827   -0.4909 H       1  LIG1        0.0000
     52 H          -3.0139    3.1757   -0.3770 H       1  LIG1        0.0000
     53 H          -1.8926    1.8414    1.0941 H       1  LIG1        0.0000
     54 H          -2.0982    0.8966   -0.2218 H       1  LIG1        0.0000
     55 H          -0.1399   -1.2665    1.9312 H       1  LIG1        0.0000
     56 H          -1.4108   -0.3481    1.4750 H       1  LIG1        0.0000
     57 H           0.8506    2.1402    4.2279 H       1  LIG1        0.0000
     58 H           4.7278    1.3458    1.5217 H       1  LIG1        0.0000
     59 H           4.3684   -0.1235    0.9064 H       1  LIG1        0.0000
     60 H           4.3625    0.1221    3.7416 H       1  LIG1        0.0000
     61 H           4.7800   -1.1749    2.8416 H       1  LIG1        0.0000
     62 H           6.7223    0.0716    1.0087 H       1  LIG1        0.0000
     63 H           9.0306    0.6813    1.2137 H       1  LIG1        0.0000
     64 H           9.9511    1.1641    3.3647 H       1  LIG1        0.0000
     65 H           8.5790    1.0420    5.3159 H       1  LIG1        0.0000
     66 H           6.2699    0.4310    5.1197 H       1  LIG1        0.0000
@<TRIPOS>BOND
     1     1     2    1
     2     2     3    2
     3     3     4    1
     4     4     5    2
     5     5     6    1
     6     6     7   am
     7     7     8    2
     8     7     9    1
     9     9    10    2
    10    10    11    1
    11    11    12    2
    12    12     2    1
    13    12     6    1
    14    10    13    1
    15    13    14    1
    16    14    15    1
    17    15    16    1
    18    16    17    1
    19    17    18    1
    20    18    19    1
    21    19    13    1
    22    19    20    1
    23    20    21    1
    24    21     9    1
    25    20    22    1
    26    22    23    2
    27    22    24   am
    28    24    25   am
    29    25    26    2
    30    25    27   am
    31    27    28    1
    32    28    29    1
    33    29    30    1
    34    30    31   ar
    35    31    32   ar
    36    32    33   ar
    37    33    34   ar
    38    34    35   ar
    39    35    30   ar
    40    27    36   am
    41    36    20    1
    42    36    37    2
    43    19    38    1
    44     1    39    1
    45     1    40    1
    46     1    41    1
    47     3    42    1
    48     4    43    1
    49     5    44    1
    50    14    45    1
    51    14    46    1
    52    15    47    1
    53    15    48    1
    54    16    49    1
    55    16    50    1
    56    17    51    1
    57    17    52    1
    58    18    53    1
    59    18    54    1
    60    21    55    1
    61    21    56    1
    62    24    57    1
    63    28    58    1
    64    28    59    1
    65    29    60    1
    66    29    61    1
    67    31    62    1
    68    32    63    1
    69    33    64    1
    70    34    65    1
    71    35    66    1
