@<TRIPOS>MOLECULE
*****
 66 71 0 0 0
SMALL
USER_CHARGES

@<TRIPOS>ATOM
      1 C1         -0.5285   -2.6370   -5.0534 C.3     1  LIG1        0.0000
      2 C2         -0.7739   -3.3361   -3.7270 C.2     1  LIG1        0.0000
      3 C3         -1.1066   -4.6670   -3.7696 C.2     1  LIG1        0.0000
      4 C4         -1.3574   -5.3751   -2.5642 C.2     1  LIG1        0.0000
      5 C5         -1.2494   -4.6898   -1.3833 C.2     1  LIG1        0.0000
      6 N6         -0.9132   -3.3556   -1.3407 N.am    1  LIG1        0.0000
      7 C7         -0.8282   -2.7200   -0.1227 C.2     1  LIG1        0.0000
      8 O8         -1.0264   -3.2968    0.9415 O.2     1  LIG1        0.0000
      9 C9         -0.5302   -1.3185   -0.1333 C.2     1  LIG1        0.0000
     10 C10        -0.2903   -0.6008   -1.2836 C.2     1  LIG1        0.0000
     11 N11        -0.3721   -1.3434   -2.4428 N.2     1  LIG1        0.0000
     12 C12        -0.6765   -2.6372   -2.4896 C.2     1  LIG1        0.0000
     13 N13         0.0030    0.7699   -1.2753 N.pl3   1  LIG1        0.0000
     14 C14         0.3530    1.6104   -2.4329 C.3     1  LIG1        0.0000
     15 C15        -0.9016    2.0293   -3.1893 C.3     1  LIG1        0.0000
     16 C16        -2.1625    2.1392   -2.3358 C.3     1  LIG1        0.0000
     17 C17        -1.9460    2.8248   -0.9928 C.3     1  LIG1        0.0000
     18 C18        -1.5550    1.7733    0.0357 C.3     1  LIG1        0.0000
     19 C19        -0.0714    1.4740    0.0105 C.3     1  LIG1        0.0000
     20 C20         0.4350    0.6458    1.1862 C.3     1  LIG1        0.0000
     21 C21        -0.4886   -0.5683    1.1952 C.3     1  LIG1        0.0000
     22 C22         0.0502    1.3236    2.4977 C.2     1  LIG1        0.0000
     23 O23        -1.0997    1.5686    2.8604 O.2     1  LIG1        0.0000
     24 N24         1.0786    1.6664    3.3865 N.am    1  LIG1        0.0000
     25 C25         2.4270    1.3781    3.1314 C.2     1  LIG1        0.0000
     26 O26         3.2637    1.7143    3.9520 O.2     1  LIG1        0.0000
     27 N27         2.8317    0.7110    1.9652 N.am    1  LIG1        0.0000
     28 C28         4.2604    0.4152    1.7756 C.3     1  LIG1        0.0000
     29 C29         4.9257    1.5732    1.0497 C.3     1  LIG1        0.0000
     30 C30         6.4020    1.2675    0.8538 C.3     1  LIG1        0.0000
     31 C31         7.3192    1.6514    1.8266 C.3     1  LIG1        0.0000
     32 C32         8.6680    1.3684    1.6389 C.3     1  LIG1        0.0000
     33 C33         9.0873    0.7078    0.4881 C.3     1  LIG1        0.0000
     34 C34         8.1630    0.3273   -0.4793 C.3     1  LIG1        0.0000
     35 C35         6.8121    0.6071   -0.2998 C.3     1  LIG1        0.0000
     36 C36         1.9145    0.3149    0.9815 C.2     1  LIG1        0.0000
     37 O37         2.3647   -0.2842    0.0136 O.2     1  LIG1        0.0000
     38 H           0.4433    2.3296   -0.0444 H       1  LIG1        0.0000
     39 H          -0.6433   -3.2909   -5.8012 H       1  LIG1        0.0000
     40 H          -1.1827   -1.8885   -5.1618 H       1  LIG1        0.0000
     41 H           0.4021   -2.2713   -5.0704 H       1  LIG1        0.0000
     42 H          -1.1725   -5.1381   -4.6493 H       1  LIG1        0.0000
     43 H          -1.6052   -6.3438   -2.5773 H       1  LIG1        0.0000
     44 H          -1.4200   -5.1738   -0.5251 H       1  LIG1        0.0000
     45 H           0.9495    1.0931   -3.0464 H       1  LIG1        0.0000
     46 H           0.8322    2.4277   -2.1128 H       1  LIG1        0.0000
     47 H          -1.0709    1.3542   -3.9074 H       1  LIG1        0.0000
     48 H          -0.7296    2.9223   -3.6051 H       1  LIG1        0.0000
     49 H          -2.5078    1.2164   -2.1653 H       1  LIG1        0.0000
     50 H          -2.8443    2.6609   -2.8485 H       1  LIG1        0.0000
     51 H          -1.2155    3.5027   -1.0752 H       1  LIG1        0.0000
     52 H          -2.7904    3.2777   -0.7065 H       1  LIG1        0.0000
     53 H          -1.8012    2.1059    0.9461 H       1  LIG1        0.0000
     54 H          -2.0571    0.9305   -0.1582 H       1  LIG1        0.0000
     55 H          -0.1734   -1.1992    1.9041 H       1  LIG1        0.0000
     56 H          -1.4144   -0.2588    1.4119 H       1  LIG1        0.0000
     57 H           0.8410    2.1356    4.2370 H       1  LIG1        0.0000
     58 H           4.3590   -0.4190    1.2330 H       1  LIG1        0.0000
     59 H           4.6953    0.2865    2.6668 H       1  LIG1        0.0000
     60 H           4.4908    1.7019    0.1585 H       1  LIG1        0.0000
     61 H           4.8271    2.4074    1.5923 H       1  LIG1        0.0000
     62 H           7.0122    2.1257    2.6517 H       1  LIG1        0.0000
     63 H           9.3366    1.6397    2.3312 H       1  LIG1        0.0000
     64 H          10.0577    0.5056    0.3560 H       1  LIG1        0.0000
     65 H           8.4697   -0.1476   -1.3042 H       1  LIG1        0.0000
     66 H           6.1433    0.3366   -0.9923 H       1  LIG1        0.0000
@<TRIPOS>BOND
     1     1     2    1
     2     2     3    2
     3     3     4    1
     4     4     5    2
     5     5     6    1
     6     6     7   am
     7     7     8    2
     8     7     9    1
     9     9    10    2
    10    10    11    1
    11    11    12    2
    12    12     2    1
    13    12     6    1
    14    10    13    1
    15    13    14    1
    16    14    15    1
    17    15    16    1
    18    16    17    1
    19    17    18    1
    20    18    19    1
    21    19    13    1
    22    19    20    1
    23    20    21    1
    24    21     9    1
    25    20    22    1
    26    22    23    2
    27    22    24   am
    28    24    25   am
    29    25    26    2
    30    25    27   am
    31    27    28    1
    32    28    29    1
    33    29    30    1
    34    30    31   ar
    35    31    32   ar
    36    32    33   ar
    37    33    34   ar
    38    34    35   ar
    39    35    30   ar
    40    27    36   am
    41    36    20    1
    42    36    37    2
    43    19    38    1
    44     1    39    1
    45     1    40    1
    46     1    41    1
    47     3    42    1
    48     4    43    1
    49     5    44    1
    50    14    45    1
    51    14    46    1
    52    15    47    1
    53    15    48    1
    54    16    49    1
    55    16    50    1
    56    17    51    1
    57    17    52    1
    58    18    53    1
    59    18    54    1
    60    21    55    1
    61    21    56    1
    62    24    57    1
    63    28    58    1
    64    28    59    1
    65    29    60    1
    66    29    61    1
    67    31    62    1
    68    32    63    1
    69    33    64    1
    70    34    65    1
    71    35    66    1
