@<TRIPOS>MOLECULE
*****
 66 71 0 0 0
SMALL
USER_CHARGES

@<TRIPOS>ATOM
      1 C1          0.7460    6.4702    0.5717 C.3     1  LIG1        0.0000
      2 C2         -0.4535    5.5796    0.2847 C.2     1  LIG1        0.0000
      3 C3         -1.6815    6.1810    0.1954 C.2     1  LIG1        0.0000
      4 C4         -2.8320    5.3931   -0.0710 C.2     1  LIG1        0.0000
      5 C5         -2.6767    4.0430   -0.2380 C.2     1  LIG1        0.0000
      6 N6         -1.4485    3.4326   -0.1523 N.am    1  LIG1        0.0000
      7 C7         -1.3195    2.0789   -0.3477 C.2     1  LIG1        0.0000
      8 O8         -2.2813    1.3687   -0.6002 O.2     1  LIG1        0.0000
      9 C9         -0.0160    1.5118   -0.2791 C.2     1  LIG1        0.0000
     10 C10         1.0827    2.2674    0.0351 C.2     1  LIG1        0.0000
     11 N11         0.8725    3.6130    0.2084 N.2     1  LIG1        0.0000
     12 C12        -0.3237    4.1735    0.1127 C.2     1  LIG1        0.0000
     13 N13         2.3609    1.7291    0.1967 N.pl3   1  LIG1        0.0000
     14 C14         3.4278    2.5427    0.8471 C.3     1  LIG1        0.0000
     15 C15         4.4890    1.9392    1.7775 C.3     1  LIG1        0.0000
     16 C16         5.2887    0.6936    1.3715 C.3     1  LIG1        0.0000
     17 C17         4.4748   -0.5493    0.9957 C.3     1  LIG1        0.0000
     18 C18         3.8558   -0.2770   -0.3684 C.3     1  LIG1        0.0000
     19 C19         2.4612    0.3481   -0.3303 C.3     1  LIG1        0.0000
     20 C20         1.3239   -0.4878    0.2395 C.3     1  LIG1        0.0000
     21 C21         0.1312    0.0260   -0.5506 C.3     1  LIG1        0.0000
     22 C22         1.2286   -0.3714    1.7702 C.2     1  LIG1        0.0000
     23 O23         0.9718    0.6409    2.4041 O.2     1  LIG1        0.0000
     24 N24         1.4097   -1.5109    2.5518 N.am    1  LIG1        0.0000
     25 C25         1.6059   -2.7675    1.9707 C.2     1  LIG1        0.0000
     26 O26         1.7580   -3.7188    2.7178 O.2     1  LIG1        0.0000
     27 N27         1.6082   -2.9581    0.5807 N.am    1  LIG1        0.0000
     28 C28         1.7713   -4.3228    0.0556 C.3     1  LIG1        0.0000
     29 C29         3.2492   -4.6144   -0.1473 C.3     1  LIG1        0.0000
     30 C30         3.5033   -6.1011    0.0433 C.3     1  LIG1        0.0000
     31 C31         4.6459   -6.5235    0.7146 C.3     1  LIG1        0.0000
     32 C32         4.8709   -7.8856    0.8838 C.3     1  LIG1        0.0000
     33 C33         3.9579   -8.8094    0.3843 C.3     1  LIG1        0.0000
     34 C34         2.8176   -8.3780   -0.2856 C.3     1  LIG1        0.0000
     35 C35         2.5854   -7.0174   -0.4597 C.3     1  LIG1        0.0000
     36 C36         1.4566   -1.8978   -0.3242 C.2     1  LIG1        0.0000
     37 O37         1.4228   -2.1581   -1.5227 O.2     1  LIG1        0.0000
     38 H           2.2206    0.4463   -1.2960 H       1  LIG1        0.0000
     39 H           0.4433    7.4194    0.6579 H       1  LIG1        0.0000
     40 H           1.1801    6.1801    1.4246 H       1  LIG1        0.0000
     41 H           1.4029    6.3967   -0.1786 H       1  LIG1        0.0000
     42 H          -1.7668    7.1699    0.3173 H       1  LIG1        0.0000
     43 H          -3.7363    5.8150   -0.1353 H       1  LIG1        0.0000
     44 H          -3.4830    3.4830   -0.4284 H       1  LIG1        0.0000
     45 H           2.9535    3.2393    1.3854 H       1  LIG1        0.0000
     46 H           3.9314    2.9820    0.1032 H       1  LIG1        0.0000
     47 H           4.0201    1.7090    2.6302 H       1  LIG1        0.0000
     48 H           5.1585    2.6618    1.9498 H       1  LIG1        0.0000
     49 H           5.8802    0.4486    2.1397 H       1  LIG1        0.0000
     50 H           5.8518    0.9381    0.5820 H       1  LIG1        0.0000
     51 H           5.0720   -1.3501    0.9487 H       1  LIG1        0.0000
     52 H           3.7570   -0.7082    1.6736 H       1  LIG1        0.0000
     53 H           4.4612    0.3446   -0.8655 H       1  LIG1        0.0000
     54 H           3.7934   -1.1456   -0.8599 H       1  LIG1        0.0000
     55 H           0.2819   -0.1259   -1.5274 H       1  LIG1        0.0000
     56 H          -0.6973   -0.4541   -0.2625 H       1  LIG1        0.0000
     57 H           1.3991   -1.4282    3.5483 H       1  LIG1        0.0000
     58 H           1.2926   -4.4030   -0.8187 H       1  LIG1        0.0000
     59 H           1.3885   -4.9784    0.7066 H       1  LIG1        0.0000
     60 H           3.5179   -4.3461   -1.0724 H       1  LIG1        0.0000
     61 H           3.7857   -4.0965    0.5191 H       1  LIG1        0.0000
     62 H           5.2985   -5.8552    1.0717 H       1  LIG1        0.0000
     63 H           5.6890   -8.2012    1.3646 H       1  LIG1        0.0000
     64 H           4.1223   -9.7881    0.5075 H       1  LIG1        0.0000
     65 H           2.1646   -9.0462   -0.6421 H       1  LIG1        0.0000
     66 H           1.7678   -6.7016   -0.9411 H       1  LIG1        0.0000
@<TRIPOS>BOND
     1     1     2    1
     2     2     3    2
     3     3     4    1
     4     4     5    2
     5     5     6    1
     6     6     7   am
     7     7     8    2
     8     7     9    1
     9     9    10    2
    10    10    11    1
    11    11    12    2
    12    12     2    1
    13    12     6    1
    14    10    13    1
    15    13    14    1
    16    14    15    1
    17    15    16    1
    18    16    17    1
    19    17    18    1
    20    18    19    1
    21    19    13    1
    22    19    20    1
    23    20    21    1
    24    21     9    1
    25    20    22    1
    26    22    23    2
    27    22    24   am
    28    24    25   am
    29    25    26    2
    30    25    27   am
    31    27    28    1
    32    28    29    1
    33    29    30    1
    34    30    31   ar
    35    31    32   ar
    36    32    33   ar
    37    33    34   ar
    38    34    35   ar
    39    35    30   ar
    40    27    36   am
    41    36    20    1
    42    36    37    2
    43    19    38    1
    44     1    39    1
    45     1    40    1
    46     1    41    1
    47     3    42    1
    48     4    43    1
    49     5    44    1
    50    14    45    1
    51    14    46    1
    52    15    47    1
    53    15    48    1
    54    16    49    1
    55    16    50    1
    56    17    51    1
    57    17    52    1
    58    18    53    1
    59    18    54    1
    60    21    55    1
    61    21    56    1
    62    24    57    1
    63    28    58    1
    64    28    59    1
    65    29    60    1
    66    29    61    1
    67    31    62    1
    68    32    63    1
    69    33    64    1
    70    34    65    1
    71    35    66    1
