@<TRIPOS>MOLECULE
*****
 66 71 0 0 0
SMALL
USER_CHARGES

@<TRIPOS>ATOM
      1 C1          0.7488    6.4863    0.5380 C.3     1  LIG1        0.0000
      2 C2         -0.4500    5.5877    0.2758 C.2     1  LIG1        0.0000
      3 C3         -1.6833    6.1791    0.1906 C.2     1  LIG1        0.0000
      4 C4         -2.8406    5.3949   -0.0538 C.2     1  LIG1        0.0000
      5 C5         -2.6796    4.0444   -0.2033 C.2     1  LIG1        0.0000
      6 N6         -1.4510    3.4430   -0.1226 N.am    1  LIG1        0.0000
      7 C7         -1.3270    2.0935   -0.3135 C.2     1  LIG1        0.0000
      8 O8         -2.2911    1.3766   -0.5460 O.2     1  LIG1        0.0000
      9 C9         -0.0304    1.5239   -0.2659 C.2     1  LIG1        0.0000
     10 C10         1.1052    2.2697    0.0344 C.2     1  LIG1        0.0000
     11 N11         0.8824    3.6118    0.2013 N.2     1  LIG1        0.0000
     12 C12        -0.3134    4.1788    0.1164 C.2     1  LIG1        0.0000
     13 N13         2.4011    1.7114    0.1365 N.pl3   1  LIG1        0.0000
     14 C14         3.4711    2.6224    0.6122 C.3     1  LIG1        0.0000
     15 C15         4.8334    2.6157   -0.1029 C.3     1  LIG1        0.0000
     16 C16         5.6843    1.3433   -0.2324 C.3     1  LIG1        0.0000
     17 C17         5.0355    0.1060   -0.8579 C.3     1  LIG1        0.0000
     18 C18         3.8178   -0.4537   -0.1281 C.3     1  LIG1        0.0000
     19 C19         2.5067    0.3032   -0.3202 C.3     1  LIG1        0.0000
     20 C20         1.3328   -0.5019    0.2366 C.3     1  LIG1        0.0000
     21 C21         0.1501    0.0391   -0.5406 C.3     1  LIG1        0.0000
     22 C22         1.2669   -0.3270    1.7524 C.2     1  LIG1        0.0000
     23 O23         1.0100    0.7097    2.3537 O.2     1  LIG1        0.0000
     24 N24         1.4318   -1.4420    2.5808 N.am    1  LIG1        0.0000
     25 C25         1.5884   -2.7260    2.0368 C.2     1  LIG1        0.0000
     26 O26         1.7270   -3.6640    2.8072 O.2     1  LIG1        0.0000
     27 N27         1.5799   -2.9684    0.6529 N.am    1  LIG1        0.0000
     28 C28         1.7114   -4.3526    0.1715 C.3     1  LIG1        0.0000
     29 C29         3.1818   -4.6817   -0.0288 C.3     1  LIG1        0.0000
     30 C30         3.3177   -6.1119   -0.5261 C.3     1  LIG1        0.0000
     31 C31         3.4474   -7.1499    0.3907 C.3     1  LIG1        0.0000
     32 C32         3.5720   -8.4553   -0.0730 C.3     1  LIG1        0.0000
     33 C33         3.5658   -8.7119   -1.4407 C.3     1  LIG1        0.0000
     34 C34         3.4353   -7.6678   -2.3505 C.3     1  LIG1        0.0000
     35 C35         3.3109   -6.3591   -1.8951 C.3     1  LIG1        0.0000
     36 C36         1.4417   -1.9340   -0.2815 C.2     1  LIG1        0.0000
     37 O37         1.4030   -2.2210   -1.4726 O.2     1  LIG1        0.0000
     38 H           2.3612    0.3340   -1.3091 H       1  LIG1        0.0000
     39 H           0.4430    7.4349    0.6187 H       1  LIG1        0.0000
     40 H           1.1955    6.2066    1.3879 H       1  LIG1        0.0000
     41 H           1.3962    6.4081   -0.2201 H       1  LIG1        0.0000
     42 H          -1.7683    7.1693    0.3014 H       1  LIG1        0.0000
     43 H          -3.7455    5.8162   -0.1149 H       1  LIG1        0.0000
     44 H          -3.4849    3.4777   -0.3772 H       1  LIG1        0.0000
     45 H           3.6429    2.3962    1.5710 H       1  LIG1        0.0000
     46 H           3.1120    3.5536    0.5485 H       1  LIG1        0.0000
     47 H           5.4027    3.2844    0.3753 H       1  LIG1        0.0000
     48 H           4.6603    2.9316   -1.0358 H       1  LIG1        0.0000
     49 H           5.9823    1.0897    0.6879 H       1  LIG1        0.0000
     50 H           6.4821    1.5744   -0.7893 H       1  LIG1        0.0000
     51 H           4.7519    0.3459   -1.7864 H       1  LIG1        0.0000
     52 H           5.7270   -0.6154   -0.8965 H       1  LIG1        0.0000
     53 H           3.6772   -1.3917   -0.4451 H       1  LIG1        0.0000
     54 H           4.0253   -0.4600    0.8501 H       1  LIG1        0.0000
     55 H           0.3078   -0.0982   -1.5185 H       1  LIG1        0.0000
     56 H          -0.6772   -0.4500   -0.2645 H       1  LIG1        0.0000
     57 H           1.4382   -1.3226    3.5736 H       1  LIG1        0.0000
     58 H           1.2264   -4.4509   -0.6975 H       1  LIG1        0.0000
     59 H           1.3185   -4.9785    0.8452 H       1  LIG1        0.0000
     60 H           3.5747   -4.0558   -0.7025 H       1  LIG1        0.0000
     61 H           3.6668   -4.5835    0.8401 H       1  LIG1        0.0000
     62 H           3.4511   -6.9597    1.3725 H       1  LIG1        0.0000
     63 H           3.6661   -9.2097    0.5767 H       1  LIG1        0.0000
     64 H           3.6555   -9.6515   -1.7711 H       1  LIG1        0.0000
     65 H           3.4310   -7.8579   -3.3322 H       1  LIG1        0.0000
     66 H           3.2175   -5.6045   -2.5446 H       1  LIG1        0.0000
@<TRIPOS>BOND
     1     1     2    1
     2     2     3    2
     3     3     4    1
     4     4     5    2
     5     5     6    1
     6     6     7   am
     7     7     8    2
     8     7     9    1
     9     9    10    2
    10    10    11    1
    11    11    12    2
    12    12     2    1
    13    12     6    1
    14    10    13    1
    15    13    14    1
    16    14    15    1
    17    15    16    1
    18    16    17    1
    19    17    18    1
    20    18    19    1
    21    19    13    1
    22    19    20    1
    23    20    21    1
    24    21     9    1
    25    20    22    1
    26    22    23    2
    27    22    24   am
    28    24    25   am
    29    25    26    2
    30    25    27   am
    31    27    28    1
    32    28    29    1
    33    29    30    1
    34    30    31   ar
    35    31    32   ar
    36    32    33   ar
    37    33    34   ar
    38    34    35   ar
    39    35    30   ar
    40    27    36   am
    41    36    20    1
    42    36    37    2
    43    19    38    1
    44     1    39    1
    45     1    40    1
    46     1    41    1
    47     3    42    1
    48     4    43    1
    49     5    44    1
    50    14    45    1
    51    14    46    1
    52    15    47    1
    53    15    48    1
    54    16    49    1
    55    16    50    1
    56    17    51    1
    57    17    52    1
    58    18    53    1
    59    18    54    1
    60    21    55    1
    61    21    56    1
    62    24    57    1
    63    28    58    1
    64    28    59    1
    65    29    60    1
    66    29    61    1
    67    31    62    1
    68    32    63    1
    69    33    64    1
    70    34    65    1
    71    35    66    1
