@<TRIPOS>MOLECULE

  25   27
SMALL
USER_CHARGES
@<TRIPOS>ATOM
   1 O1           3.4192     2.0415    -0.0238 O.2          1    LIG   0.0000
   2 C2           2.3653     1.4230    -0.0186 C.2          1    LIG   0.0000
   3 N3           1.1448     2.0491    -0.0047 N.pl3        1    LIG   0.0000
   4 N4           0.0122     1.3673     0.0028 N.2          1    LIG   0.0000
   5 C5          -0.0075     0.0458    -0.0031 C.2          1    LIG   0.0000
   6 C6           1.2130    -0.6835    -0.0167 C.2          1    LIG   0.0000
   7 N7           1.2241    -2.0833    -0.0240 N.pl3        1    LIG   0.0000
   8 C8           0.6841    -2.9605     1.0137 C.3          1    LIG   0.0000
   9 C9           1.3010    -4.2663     0.5666 C.3          1    LIG   0.0000
  10 C10          2.8035    -4.0750     0.6230 C.2          1    LIG   0.0000
  11 C11          3.1164    -3.2658    -0.3670 C.2          1    LIG   0.0000
  12 C12          1.8034    -2.9491    -1.0415 C.3          1    LIG   0.0000
  13 C13          1.0256    -4.2239    -0.9107 C.3          1    LIG   0.0000
  14 C14          2.3998     0.0032    -0.0242 C.2          1    LIG   0.0000
  15 Cl15         3.9626    -0.8493    -0.0409 Cl           1    LIG   0.0000
  16 H            1.1110     3.0485    -0.0000 H            1    LIG   0.0000
  17 H            0.9595    -5.0794     1.0380 H            1    LIG   0.0000
  18 H            1.8644    -2.5644    -1.9626 H            1    LIG   0.0000
  19 H           -0.8808    -0.4412     0.0020 H            1    LIG   0.0000
  20 H           -0.3152    -2.9923     0.9947 H            1    LIG   0.0000
  21 H            0.9919    -2.6940     1.9271 H            1    LIG   0.0000
  22 H            3.4338    -4.4836     1.2831 H            1    LIG   0.0000
  23 H            4.0256    -2.9334    -0.6176 H            1    LIG   0.0000
  24 H            1.4172    -4.9914    -1.4182 H            1    LIG   0.0000
  25 H            0.0565    -4.1326    -1.1398 H            1    LIG   0.0000
@<TRIPOS>BOND
   1        1        2 2
   2        2        3 1
   3        3        4 1
   4        4        5 2
   5        5        6 1
   6        6        7 1
   7        7        8 1
   8        8        9 1
   9        9       10 1
  10       10       11 2
  11       11       12 1
  12       12        7 1
  13       12       13 1
  14       13        9 1
  15        6       14 2
  16       14        2 1
  17       14       15 1
  18        3       16 1
  19        9       17 1
  20       12       18 1
  21        5       19 1
  22        8       20 1
  23        8       21 1
  24       10       22 1
  25       11       23 1
  26       13       24 1
  27       13       25 1

@<TRIPOS>MOLECULE

  25   27
SMALL
USER_CHARGES
@<TRIPOS>ATOM
   1 O1           3.4192     2.0415    -0.0238 O.2          1    LIG   0.0000
   2 C2           2.3653     1.4230    -0.0186 C.2          1    LIG   0.0000
   3 N3           1.1448     2.0491    -0.0047 N.pl3        1    LIG   0.0000
   4 N4           0.0122     1.3673     0.0028 N.2          1    LIG   0.0000
   5 C5          -0.0075     0.0458    -0.0031 C.2          1    LIG   0.0000
   6 C6           1.2130    -0.6835    -0.0167 C.2          1    LIG   0.0000
   7 N7           1.2241    -2.0833    -0.0240 N.pl3        1    LIG   0.0000
   8 C8           1.8601    -2.9509     0.9662 C.3          1    LIG   0.0000
   9 C9           1.7924    -4.2606     0.2139 C.3          1    LIG   0.0000
  10 C10          2.5909    -4.0679    -1.0598 C.2          1    LIG   0.0000
  11 C11          1.8832    -3.2679    -1.8293 C.2          1    LIG   0.0000
  12 C12          0.6399    -2.9583    -1.0308 C.3          1    LIG   0.0000
  13 C13          0.3750    -4.2322    -0.2864 C.3          1    LIG   0.0000
  14 C14          2.3998     0.0032    -0.0242 C.2          1    LIG   0.0000
  15 Cl15         3.9626    -0.8493    -0.0409 Cl           1    LIG   0.0000
  16 H            1.1110     3.0485    -0.0000 H            1    LIG   0.0000
  17 H            2.0368    -5.0694     0.7488 H            1    LIG   0.0000
  18 H           -0.1304    -2.5823    -1.5458 H            1    LIG   0.0000
  19 H           -0.8808    -0.4412     0.0020 H            1    LIG   0.0000
  20 H            1.3443    -2.9835     1.8223 H            1    LIG   0.0000
  21 H            2.8027    -2.6757     1.1552 H            1    LIG   0.0000
  22 H            3.4811    -4.4699    -1.2739 H            1    LIG   0.0000
  23 H            2.1180    -2.9374    -2.7434 H            1    LIG   0.0000
  24 H            0.1379    -5.0043    -0.8761 H            1    LIG   0.0000
  25 H           -0.3087    -4.1437     0.4379 H            1    LIG   0.0000
@<TRIPOS>BOND
   1        1        2 2
   2        2        3 1
   3        3        4 1
   4        4        5 2
   5        5        6 1
   6        6        7 1
   7        7        8 1
   8        8        9 1
   9        9       10 1
  10       10       11 2
  11       11       12 1
  12       12        7 1
  13       12       13 1
  14       13        9 1
  15        6       14 2
  16       14        2 1
  17       14       15 1
  18        3       16 1
  19        9       17 1
  20       12       18 1
  21        5       19 1
  22        8       20 1
  23        8       21 1
  24       10       22 1
  25       11       23 1
  26       13       24 1
  27       13       25 1

@<TRIPOS>MOLECULE

  25   27
SMALL
USER_CHARGES
@<TRIPOS>ATOM
   1 O1           3.4192     2.0415    -0.0238 O.2          1    LIG   0.0000
   2 C2           2.3653     1.4230    -0.0186 C.2          1    LIG   0.0000
   3 N3           1.1448     2.0491    -0.0047 N.pl3        1    LIG   0.0000
   4 N4           0.0122     1.3673     0.0028 N.2          1    LIG   0.0000
   5 C5          -0.0075     0.0458    -0.0031 C.2          1    LIG   0.0000
   6 C6           1.2130    -0.6835    -0.0167 C.2          1    LIG   0.0000
   7 N7           1.2241    -2.0833    -0.0240 N.pl3        1    LIG   0.0000
   8 C8           2.4069    -2.9412    -0.0760 C.3          1    LIG   0.0000
   9 C9           1.7327    -4.2579    -0.3880 C.3          1    LIG   0.0000
  10 C10          1.0273    -4.0769    -1.7172 C.2          1    LIG   0.0000
  11 C11          0.0004    -3.2845    -1.4925 C.2          1    LIG   0.0000
  12 C12          0.0675    -2.9681    -0.0178 C.3          1    LIG   0.0000
  13 C13          0.5904    -4.2351     0.5891 C.3          1    LIG   0.0000
  14 C14          2.3998     0.0032    -0.0242 C.2          1    LIG   0.0000
  15 Cl15         3.9626    -0.8493    -0.0409 Cl           1    LIG   0.0000
  16 H            1.1110     3.0485    -0.0000 H            1    LIG   0.0000
  17 H            2.3249    -5.0616    -0.3288 H            1    LIG   0.0000
  18 H           -0.7668    -2.5974     0.3902 H            1    LIG   0.0000
  19 H           -0.8808    -0.4412     0.0020 H            1    LIG   0.0000
  20 H            2.8906    -2.9660     0.7989 H            1    LIG   0.0000
  21 H            3.0396    -2.6636    -0.7990 H            1    LIG   0.0000
  22 H            1.2905    -4.4804    -2.5935 H            1    LIG   0.0000
  23 H           -0.6766    -2.9625    -2.1543 H            1    LIG   0.0000
  24 H           -0.0322    -5.0128     0.5029 H            1    LIG   0.0000
  25 H            0.8750    -4.1401     1.5431 H            1    LIG   0.0000
@<TRIPOS>BOND
   1        1        2 2
   2        2        3 1
   3        3        4 1
   4        4        5 2
   5        5        6 1
   6        6        7 1
   7        7        8 1
   8        8        9 1
   9        9       10 1
  10       10       11 2
  11       11       12 1
  12       12        7 1
  13       12       13 1
  14       13        9 1
  15        6       14 2
  16       14        2 1
  17       14       15 1
  18        3       16 1
  19        9       17 1
  20       12       18 1
  21        5       19 1
  22        8       20 1
  23        8       21 1
  24       10       22 1
  25       11       23 1
  26       13       24 1
  27       13       25 1

@<TRIPOS>MOLECULE

  25   27
SMALL
USER_CHARGES
@<TRIPOS>ATOM
   1 O1           3.4192     2.0415    -0.0238 O.2          1    LIG   0.0000
   2 C2           2.3653     1.4230    -0.0186 C.2          1    LIG   0.0000
   3 N3           1.1448     2.0491    -0.0047 N.pl3        1    LIG   0.0000
   4 N4           0.0122     1.3673     0.0028 N.2          1    LIG   0.0000
   5 C5          -0.0075     0.0458    -0.0031 C.2          1    LIG   0.0000
   6 C6           1.2130    -0.6835    -0.0167 C.2          1    LIG   0.0000
   7 N7           1.2241    -2.0833    -0.0240 N.pl3        1    LIG   0.0000
   8 C8           1.7777    -2.9410    -1.0707 C.3          1    LIG   0.0000
   9 C9           1.1815    -4.2610    -0.6373 C.3          1    LIG   0.0000
  10 C10         -0.3238    -4.0928    -0.6918 C.2          1    LIG   0.0000
  11 C11         -0.6493    -3.2990     0.3065 C.2          1    LIG   0.0000
  12 C12          0.6586    -2.9686     0.9844 C.3          1    LIG   0.0000
  13 C13          1.4564    -4.2296     0.8404 C.3          1    LIG   0.0000
  14 C14          2.3998     0.0032    -0.0242 C.2          1    LIG   0.0000
  15 Cl15         3.9626    -0.8493    -0.0409 Cl           1    LIG   0.0000
  16 H            1.1110     3.0485    -0.0000 H            1    LIG   0.0000
  17 H            1.5357    -5.0637    -1.1171 H            1    LIG   0.0000
  18 H            0.5916    -2.5945     1.9094 H            1    LIG   0.0000
  19 H           -0.8808    -0.4412     0.0020 H            1    LIG   0.0000
  20 H            2.7774    -2.9572    -1.0520 H            1    LIG   0.0000
  21 H            1.4657    -2.6699    -1.9813 H            1    LIG   0.0000
  22 H           -0.9476    -4.5045    -1.3562 H            1    LIG   0.0000
  23 H           -1.5637    -2.9836     0.5605 H            1    LIG   0.0000
  24 H            1.0769    -5.0084     1.3398 H            1    LIG   0.0000
  25 H            2.4239    -4.1254     1.0705 H            1    LIG   0.0000
@<TRIPOS>BOND
   1        1        2 2
   2        2        3 1
   3        3        4 1
   4        4        5 2
   5        5        6 1
   6        6        7 1
   7        7        8 1
   8        8        9 1
   9        9       10 1
  10       10       11 2
  11       11       12 1
  12       12        7 1
  13       12       13 1
  14       13        9 1
  15        6       14 2
  16       14        2 1
  17       14       15 1
  18        3       16 1
  19        9       17 1
  20       12       18 1
  21        5       19 1
  22        8       20 1
  23        8       21 1
  24       10       22 1
  25       11       23 1
  26       13       24 1
  27       13       25 1

@<TRIPOS>MOLECULE

  25   27
SMALL
USER_CHARGES
@<TRIPOS>ATOM
   1 O1           3.4192     2.0415    -0.0238 O.2          1    LIG   0.0000
   2 C2           2.3653     1.4230    -0.0186 C.2          1    LIG   0.0000
   3 N3           1.1448     2.0491    -0.0047 N.pl3        1    LIG   0.0000
   4 N4           0.0122     1.3673     0.0028 N.2          1    LIG   0.0000
   5 C5          -0.0075     0.0458    -0.0031 C.2          1    LIG   0.0000
   6 C6           1.2130    -0.6835    -0.0167 C.2          1    LIG   0.0000
   7 N7           1.2241    -2.0833    -0.0240 N.pl3        1    LIG   0.0000
   8 C8           0.6017    -2.9505    -1.0232 C.3          1    LIG   0.0000
   9 C9           0.6901    -4.2667    -0.2846 C.3          1    LIG   0.0000
  10 C10         -0.1112    -4.0999     0.9910 C.2          1    LIG   0.0000
  11 C11          0.5838    -3.2969     1.7688 C.2          1    LIG   0.0000
  12 C12          1.8220    -2.9594     0.9737 C.3          1    LIG   0.0000
  13 C13          2.1069    -4.2212     0.2161 C.3          1    LIG   0.0000
  14 C14          2.3998     0.0032    -0.0242 C.2          1    LIG   0.0000
  15 Cl15         3.9626    -0.8493    -0.0409 Cl           1    LIG   0.0000
  16 H            1.1110     3.0485    -0.0000 H            1    LIG   0.0000
  17 H            0.4585    -5.0737    -0.8278 H            1    LIG   0.0000
  18 H            2.5864    -2.5766     1.4926 H            1    LIG   0.0000
  19 H           -0.8808    -0.4412     0.0020 H            1    LIG   0.0000
  20 H            1.1179    -2.9660    -1.8795 H            1    LIG   0.0000
  21 H           -0.3451    -2.6882    -1.2095 H            1    LIG   0.0000
  22 H           -0.9950    -4.5181     1.2008 H            1    LIG   0.0000
  23 H            0.3439    -2.9796     2.6863 H            1    LIG   0.0000
  24 H            2.3562    -4.9955     0.7978 H            1    LIG   0.0000
  25 H            2.7891    -4.1143    -0.5072 H            1    LIG   0.0000
@<TRIPOS>BOND
   1        1        2 2
   2        2        3 1
   3        3        4 1
   4        4        5 2
   5        5        6 1
   6        6        7 1
   7        7        8 1
   8        8        9 1
   9        9       10 1
  10       10       11 2
  11       11       12 1
  12       12        7 1
  13       12       13 1
  14       13        9 1
  15        6       14 2
  16       14        2 1
  17       14       15 1
  18        3       16 1
  19        9       17 1
  20       12       18 1
  21        5       19 1
  22        8       20 1
  23        8       21 1
  24       10       22 1
  25       11       23 1
  26       13       24 1
  27       13       25 1

@<TRIPOS>MOLECULE

  25   27
SMALL
USER_CHARGES
@<TRIPOS>ATOM
   1 O1           3.4192     2.0415    -0.0238 O.2          1    LIG   0.0000
   2 C2           2.3653     1.4230    -0.0186 C.2          1    LIG   0.0000
   3 N3           1.1448     2.0491    -0.0047 N.pl3        1    LIG   0.0000
   4 N4           0.0122     1.3673     0.0028 N.2          1    LIG   0.0000
   5 C5          -0.0075     0.0458    -0.0031 C.2          1    LIG   0.0000
   6 C6           1.2130    -0.6835    -0.0167 C.2          1    LIG   0.0000
   7 N7           1.2241    -2.0889    -0.0240 N.pl3        1    LIG   0.0000
   8 C8           0.6475    -2.9862     0.9743 C.3          1    LIG   0.0000
   9 C9           0.5351    -4.2472     0.1468 C.3          1    LIG   0.0000
  10 C10         -0.2516    -3.9116    -1.1024 C.2          1    LIG   0.0000
  11 C11          0.5220    -3.1356    -1.8261 C.2          1    LIG   0.0000
  12 C12          1.8020    -2.9514    -1.0392 C.3          1    LIG   0.0000
  13 C13          1.9630    -4.2727    -0.3434 C.3          1    LIG   0.0000
  14 C14          2.3998     0.0032    -0.0242 C.2          1    LIG   0.0000
  15 Cl15         3.9626    -0.8493    -0.0409 Cl           1    LIG   0.0000
  16 H            1.1110     3.0485    -0.0000 H            1    LIG   0.0000
  17 H            0.2335    -5.0626     0.6411 H            1    LIG   0.0000
  18 H            2.5951    -2.6000    -1.5367 H            1    LIG   0.0000
  19 H           -0.8808    -0.4412     0.0020 H            1    LIG   0.0000
  20 H           -0.2460    -2.6670     1.2902 H            1    LIG   0.0000
  21 H            1.2544    -3.1088     1.7596 H            1    LIG   0.0000
  22 H           -1.1753    -4.2193    -1.3308 H            1    LIG   0.0000
  23 H            0.3078    -2.7436    -2.7208 H            1    LIG   0.0000
  24 H            2.6401    -4.2588     0.3924 H            1    LIG   0.0000
  25 H            2.1607    -5.0315    -0.9640 H            1    LIG   0.0000
@<TRIPOS>BOND
   1        1        2 2
   2        2        3 1
   3        3        4 1
   4        4        5 2
   5        5        6 1
   6        6        7 1
   7        7        8 1
   8        8        9 1
   9        9       10 1
  10       10       11 2
  11       11       12 1
  12       12        7 1
  13       12       13 1
  14       13        9 1
  15        6       14 2
  16       14        2 1
  17       14       15 1
  18        3       16 1
  19        9       17 1
  20       12       18 1
  21        5       19 1
  22        8       20 1
  23        8       21 1
  24       10       22 1
  25       11       23 1
  26       13       24 1
  27       13       25 1

@<TRIPOS>MOLECULE

  25   27
SMALL
USER_CHARGES
@<TRIPOS>ATOM
   1 O1           3.4192     2.0415    -0.0238 O.2          1    LIG   0.0000
   2 C2           2.3653     1.4230    -0.0186 C.2          1    LIG   0.0000
   3 N3           1.1448     2.0491    -0.0047 N.pl3        1    LIG   0.0000
   4 N4           0.0122     1.3673     0.0028 N.2          1    LIG   0.0000
   5 C5          -0.0075     0.0458    -0.0031 C.2          1    LIG   0.0000
   6 C6           1.2130    -0.6835    -0.0167 C.2          1    LIG   0.0000
   7 N7           1.2241    -2.0889    -0.0240 N.pl3        1    LIG   0.0000
   8 C8           1.8079    -2.9770     0.9782 C.3          1    LIG   0.0000
   9 C9           1.0458    -4.2459     0.6673 C.3          1    LIG   0.0000
  10 C10         -0.4323    -3.9225     0.7224 C.2          1    LIG   0.0000
  11 C11         -0.6787    -3.1529    -0.3127 C.2          1    LIG   0.0000
  12 C12          0.6413    -2.9606    -1.0285 C.3          1    LIG   0.0000
  13 C13          1.3355    -4.2752    -0.8144 C.3          1    LIG   0.0000
  14 C14          2.3998     0.0032    -0.0242 C.2          1    LIG   0.0000
  15 Cl15         3.9626    -0.8493    -0.0409 Cl           1    LIG   0.0000
  16 H            1.1110     3.0485    -0.0000 H            1    LIG   0.0000
  17 H            1.3298    -5.0567     1.1790 H            1    LIG   0.0000
  18 H            0.6040    -2.6134    -1.9655 H            1    LIG   0.0000
  19 H           -0.8808    -0.4412     0.0020 H            1    LIG   0.0000
  20 H            1.6320    -2.6554     1.9086 H            1    LIG   0.0000
  21 H            2.7924    -3.0919     0.8459 H            1    LIG   0.0000
  22 H           -1.0893    -4.2329     1.4095 H            1    LIG   0.0000
  23 H           -1.5638    -2.7695    -0.5762 H            1    LIG   0.0000
  24 H            2.3111    -4.2540    -1.0329 H            1    LIG   0.0000
  25 H            0.9033    -5.0397    -1.2926 H            1    LIG   0.0000
@<TRIPOS>BOND
   1        1        2 2
   2        2        3 1
   3        3        4 1
   4        4        5 2
   5        5        6 1
   6        6        7 1
   7        7        8 1
   8        8        9 1
   9        9       10 1
  10       10       11 2
  11       11       12 1
  12       12        7 1
  13       12       13 1
  14       13        9 1
  15        6       14 2
  16       14        2 1
  17       14       15 1
  18        3       16 1
  19        9       17 1
  20       12       18 1
  21        5       19 1
  22        8       20 1
  23        8       21 1
  24       10       22 1
  25       11       23 1
  26       13       24 1
  27       13       25 1

@<TRIPOS>MOLECULE

  25   27
SMALL
USER_CHARGES
@<TRIPOS>ATOM
   1 O1           3.4192     2.0415    -0.0238 O.2          1    LIG   0.0000
   2 C2           2.3653     1.4230    -0.0186 C.2          1    LIG   0.0000
   3 N3           1.1448     2.0491    -0.0047 N.pl3        1    LIG   0.0000
   4 N4           0.0122     1.3673     0.0028 N.2          1    LIG   0.0000
   5 C5          -0.0075     0.0458    -0.0031 C.2          1    LIG   0.0000
   6 C6           1.2130    -0.6835    -0.0167 C.2          1    LIG   0.0000
   7 N7           1.2241    -2.0889    -0.0240 N.pl3        1    LIG   0.0000
   8 C8           2.3915    -2.9672    -0.0247 C.3          1    LIG   0.0000
   9 C9           1.7518    -4.2394     0.4852 C.3          1    LIG   0.0000
  10 C10          1.0578    -3.9163     1.7914 C.2          1    LIG   0.0000
  11 C11          0.0317    -3.1567     1.4840 C.2          1    LIG   0.0000
  12 C12          0.0702    -2.9704    -0.0179 C.3          1    LIG   0.0000
  13 C13          0.6139    -4.2825    -0.5064 C.3          1    LIG   0.0000
  14 C14          2.3998     0.0032    -0.0242 C.2          1    LIG   0.0000
  15 Cl15         3.9626    -0.8493    -0.0409 Cl           1    LIG   0.0000
  16 H            1.1110     3.0485    -0.0000 H            1    LIG   0.0000
  17 H            2.3438    -5.0452     0.4985 H            1    LIG   0.0000
  18 H           -0.7628    -2.6321    -0.4556 H            1    LIG   0.0000
  19 H           -0.8808    -0.4412     0.0020 H            1    LIG   0.0000
  20 H            3.1065    -2.6369     0.5915 H            1    LIG   0.0000
  21 H            2.7701    -3.0828    -0.9430 H            1    LIG   0.0000
  22 H            1.3268    -4.2205     2.7052 H            1    LIG   0.0000
  23 H           -0.6423    -2.7762     2.1171 H            1    LIG   0.0000
  24 H            0.9123    -4.2628    -1.4607 H            1    LIG   0.0000
  25 H           -0.0099    -5.0517    -0.3681 H            1    LIG   0.0000
@<TRIPOS>BOND
   1        1        2 2
   2        2        3 1
   3        3        4 1
   4        4        5 2
   5        5        6 1
   6        6        7 1
   7        7        8 1
   8        8        9 1
   9        9       10 1
  10       10       11 2
  11       11       12 1
  12       12        7 1
  13       12       13 1
  14       13        9 1
  15        6       14 2
  16       14        2 1
  17       14       15 1
  18        3       16 1
  19        9       17 1
  20       12       18 1
  21        5       19 1
  22        8       20 1
  23        8       21 1
  24       10       22 1
  25       11       23 1
  26       13       24 1
  27       13       25 1

@<TRIPOS>MOLECULE

  25   27
SMALL
USER_CHARGES
@<TRIPOS>ATOM
   1 O1           3.4192     2.0415    -0.0238 O.2          1    LIG   0.0000
   2 C2           2.3653     1.4230    -0.0186 C.2          1    LIG   0.0000
   3 N3           1.1448     2.0491    -0.0047 N.pl3        1    LIG   0.0000
   4 N4           0.0122     1.3673     0.0028 N.2          1    LIG   0.0000
   5 C5          -0.0075     0.0458    -0.0031 C.2          1    LIG   0.0000
   6 C6           1.2130    -0.6835    -0.0167 C.2          1    LIG   0.0000
   7 N7           1.2241    -2.0889    -0.0240 N.pl3        1    LIG   0.0000
   8 C8           1.8147    -2.9665    -1.0316 C.3          1    LIG   0.0000
   9 C9           1.9471    -4.2342    -0.2173 C.3          1    LIG   0.0000
  10 C10          2.7285    -3.8992     1.0355 C.2          1    LIG   0.0000
  11 C11          1.9427    -3.1431     1.7671 C.2          1    LIG   0.0000
  12 C12          0.6599    -2.9709     0.9820 C.3          1    LIG   0.0000
  13 C13          0.5198    -4.2873     0.2725 C.3          1    LIG   0.0000
  14 C14          2.3998     0.0032    -0.0242 C.2          1    LIG   0.0000
  15 Cl15         3.9626    -0.8493    -0.0409 Cl           1    LIG   0.0000
  16 H            1.1110     3.0485    -0.0000 H            1    LIG   0.0000
  17 H            2.2614    -5.0395    -0.7199 H            1    LIG   0.0000
  18 H           -0.1385    -2.6372     1.4831 H            1    LIG   0.0000
  19 H           -0.8808    -0.4412     0.0020 H            1    LIG   0.0000
  20 H            2.7030    -2.6300    -1.3441 H            1    LIG   0.0000
  21 H            1.2097    -3.0906    -1.8182 H            1    LIG   0.0000
  22 H            3.6569    -4.1946     1.2607 H            1    LIG   0.0000
  23 H            2.1508    -2.7570     2.6658 H            1    LIG   0.0000
  24 H           -0.1575    -4.2764    -0.4631 H            1    LIG   0.0000
  25 H            0.3342    -5.0555     0.8852 H            1    LIG   0.0000
@<TRIPOS>BOND
   1        1        2 2
   2        2        3 1
   3        3        4 1
   4        4        5 2
   5        5        6 1
   6        6        7 1
   7        7        8 1
   8        8        9 1
   9        9       10 1
  10       10       11 2
  11       11       12 1
  12       12        7 1
  13       12       13 1
  14       13        9 1
  15        6       14 2
  16       14        2 1
  17       14       15 1
  18        3       16 1
  19        9       17 1
  20       12       18 1
  21        5       19 1
  22        8       20 1
  23        8       21 1
  24       10       22 1
  25       11       23 1
  26       13       24 1
  27       13       25 1

@<TRIPOS>MOLECULE

  25   27
SMALL
USER_CHARGES
@<TRIPOS>ATOM
   1 O1           3.4192     2.0415    -0.0238 O.2          1    LIG   0.0000
   2 C2           2.3653     1.4230    -0.0186 C.2          1    LIG   0.0000
   3 N3           1.1448     2.0491    -0.0047 N.pl3        1    LIG   0.0000
   4 N4           0.0122     1.3673     0.0028 N.2          1    LIG   0.0000
   5 C5          -0.0075     0.0458    -0.0031 C.2          1    LIG   0.0000
   6 C6           1.2130    -0.6835    -0.0167 C.2          1    LIG   0.0000
   7 N7           1.2241    -2.0889    -0.0240 N.pl3        1    LIG   0.0000
   8 C8           0.2281    -2.9812    -0.6123 C.3          1    LIG   0.0000
   9 C9           1.0590    -4.2385    -0.7413 C.3          1    LIG   0.0000
  10 C10          2.3073    -3.8893    -1.5235 C.2          1    LIG   0.0000
  11 C11          3.0290    -3.1215    -0.7398 C.2          1    LIG   0.0000
  12 C12          2.2416    -2.9562     0.5425 C.3          1    LIG   0.0000
  13 C13          1.5494    -4.2813     0.6862 C.3          1    LIG   0.0000
  14 C14          2.3998     0.0032    -0.0242 C.2          1    LIG   0.0000
  15 Cl15         3.9626    -0.8493    -0.0409 Cl           1    LIG   0.0000
  16 H            1.1110     3.0485    -0.0000 H            1    LIG   0.0000
  17 H            0.5669    -5.0511    -1.0534 H            1    LIG   0.0000
  18 H            2.7382    -2.6138     1.3401 H            1    LIG   0.0000
  19 H           -0.8808    -0.4412     0.0020 H            1    LIG   0.0000
  20 H           -0.0887    -2.6512    -1.5015 H            1    LIG   0.0000
  21 H           -0.5568    -3.1139    -0.0070 H            1    LIG   0.0000
  22 H            2.5364    -4.1842    -2.4512 H            1    LIG   0.0000
  23 H            3.9225    -2.7243    -0.9489 H            1    LIG   0.0000
  24 H            0.8136    -4.2783     1.3635 H            1    LIG   0.0000
  25 H            2.1720    -5.0410     0.8739 H            1    LIG   0.0000
@<TRIPOS>BOND
   1        1        2 2
   2        2        3 1
   3        3        4 1
   4        4        5 2
   5        5        6 1
   6        6        7 1
   7        7        8 1
   8        8        9 1
   9        9       10 1
  10       10       11 2
  11       11       12 1
  12       12        7 1
  13       12       13 1
  14       13        9 1
  15        6       14 2
  16       14        2 1
  17       14       15 1
  18        3       16 1
  19        9       17 1
  20       12       18 1
  21        5       19 1
  22        8       20 1
  23        8       21 1
  24       10       22 1
  25       11       23 1
  26       13       24 1
  27       13       25 1

