@<TRIPOS>MOLECULE
*****
 25 27 0 0 0
SMALL
USER_CHARGES

@<TRIPOS>ATOM
      1 O1          3.4192    2.0415   -0.0238 O.2     1  LIG1        0.0000
      2 C2          2.3653    1.4230   -0.0186 C.2     1  LIG1        0.0000
      3 N3          1.1448    2.0491   -0.0047 N.am    1  LIG1        0.0000
      4 N4          0.0122    1.3673    0.0028 N.2     1  LIG1        0.0000
      5 C5         -0.0075    0.0458   -0.0031 C.2     1  LIG1        0.0000
      6 C6          1.2130   -0.6835   -0.0167 C.2     1  LIG1        0.0000
      7 N7          1.2241   -2.0889   -0.0240 N.pl3   1  LIG1        0.0000
      8 C8          0.6475   -2.9862    0.9743 C.3     1  LIG1        0.0000
      9 C9          0.5351   -4.2472    0.1468 C.3     1  LIG1        0.0000
     10 C10        -0.2516   -3.9116   -1.1024 C.2     1  LIG1        0.0000
     11 C11         0.5220   -3.1356   -1.8261 C.2     1  LIG1        0.0000
     12 C12         1.8020   -2.9514   -1.0392 C.3     1  LIG1        0.0000
     13 C13         1.9630   -4.2727   -0.3434 C.3     1  LIG1        0.0000
     14 C14         2.3998    0.0032   -0.0242 C.2     1  LIG1        0.0000
     15 Cl15        3.9626   -0.8493   -0.0409 Cl      1  LIG1        0.0000
     16 H           1.1110    3.0485   -0.0000 H       1  LIG1        0.0000
     17 H           0.2335   -5.0626    0.6411 H       1  LIG1        0.0000
     18 H           2.5951   -2.6000   -1.5367 H       1  LIG1        0.0000
     19 H          -0.8808   -0.4412    0.0020 H       1  LIG1        0.0000
     20 H          -0.2460   -2.6670    1.2902 H       1  LIG1        0.0000
     21 H           1.2544   -3.1088    1.7596 H       1  LIG1        0.0000
     22 H          -1.1753   -4.2193   -1.3308 H       1  LIG1        0.0000
     23 H           0.3078   -2.7436   -2.7208 H       1  LIG1        0.0000
     24 H           2.6401   -4.2588    0.3924 H       1  LIG1        0.0000
     25 H           2.1607   -5.0315   -0.9640 H       1  LIG1        0.0000
@<TRIPOS>BOND
     1     1     2    2
     2     2     3   am
     3     3     4    1
     4     4     5    2
     5     5     6    1
     6     6     7    1
     7     7     8    1
     8     8     9    1
     9     9    10    1
    10    10    11    2
    11    11    12    1
    12    12     7    1
    13    12    13    1
    14    13     9    1
    15     6    14    2
    16    14     2    1
    17    14    15    1
    18     3    16    1
    19     9    17    1
    20    12    18    1
    21     5    19    1
    22     8    20    1
    23     8    21    1
    24    10    22    1
    25    11    23    1
    26    13    24    1
    27    13    25    1
