@<TRIPOS>MOLECULE
*****
 25 27 0 0 0
SMALL
USER_CHARGES

@<TRIPOS>ATOM
      1 O1          3.4192    2.0415   -0.0238 O.2     1  LIG1        0.0000
      2 C2          2.3653    1.4230   -0.0186 C.2     1  LIG1        0.0000
      3 N3          1.1448    2.0491   -0.0047 N.am    1  LIG1        0.0000
      4 N4          0.0122    1.3673    0.0028 N.2     1  LIG1        0.0000
      5 C5         -0.0075    0.0458   -0.0031 C.2     1  LIG1        0.0000
      6 C6          1.2130   -0.6835   -0.0167 C.2     1  LIG1        0.0000
      7 N7          1.2241   -2.0889   -0.0240 N.pl3   1  LIG1        0.0000
      8 C8          0.2281   -2.9812   -0.6123 C.3     1  LIG1        0.0000
      9 C9          1.0590   -4.2385   -0.7413 C.3     1  LIG1        0.0000
     10 C10         2.3073   -3.8893   -1.5235 C.2     1  LIG1        0.0000
     11 C11         3.0290   -3.1215   -0.7398 C.2     1  LIG1        0.0000
     12 C12         2.2416   -2.9562    0.5425 C.3     1  LIG1        0.0000
     13 C13         1.5494   -4.2813    0.6862 C.3     1  LIG1        0.0000
     14 C14         2.3998    0.0032   -0.0242 C.2     1  LIG1        0.0000
     15 Cl15        3.9626   -0.8493   -0.0409 Cl      1  LIG1        0.0000
     16 H           1.1110    3.0485   -0.0000 H       1  LIG1        0.0000
     17 H           0.5669   -5.0511   -1.0534 H       1  LIG1        0.0000
     18 H           2.7382   -2.6138    1.3401 H       1  LIG1        0.0000
     19 H          -0.8808   -0.4412    0.0020 H       1  LIG1        0.0000
     20 H          -0.0887   -2.6512   -1.5015 H       1  LIG1        0.0000
     21 H          -0.5568   -3.1139   -0.0070 H       1  LIG1        0.0000
     22 H           2.5364   -4.1842   -2.4512 H       1  LIG1        0.0000
     23 H           3.9225   -2.7243   -0.9489 H       1  LIG1        0.0000
     24 H           0.8136   -4.2783    1.3635 H       1  LIG1        0.0000
     25 H           2.1720   -5.0410    0.8739 H       1  LIG1        0.0000
@<TRIPOS>BOND
     1     1     2    2
     2     2     3   am
     3     3     4    1
     4     4     5    2
     5     5     6    1
     6     6     7    1
     7     7     8    1
     8     8     9    1
     9     9    10    1
    10    10    11    2
    11    11    12    1
    12    12     7    1
    13    12    13    1
    14    13     9    1
    15     6    14    2
    16    14     2    1
    17    14    15    1
    18     3    16    1
    19     9    17    1
    20    12    18    1
    21     5    19    1
    22     8    20    1
    23     8    21    1
    24    10    22    1
    25    11    23    1
    26    13    24    1
    27    13    25    1
