@<TRIPOS>MOLECULE
*****
 25 27 0 0 0
SMALL
USER_CHARGES

@<TRIPOS>ATOM
      1 O1          3.4192    2.0415   -0.0238 O.2     1  LIG1        0.0000
      2 C2          2.3653    1.4230   -0.0186 C.2     1  LIG1        0.0000
      3 N3          1.1448    2.0491   -0.0047 N.am    1  LIG1        0.0000
      4 N4          0.0122    1.3673    0.0028 N.2     1  LIG1        0.0000
      5 C5         -0.0075    0.0458   -0.0031 C.2     1  LIG1        0.0000
      6 C6          1.2130   -0.6835   -0.0167 C.2     1  LIG1        0.0000
      7 N7          1.2241   -2.0833   -0.0240 N.pl3   1  LIG1        0.0000
      8 C8          2.4069   -2.9412   -0.0760 C.3     1  LIG1        0.0000
      9 C9          1.7327   -4.2579   -0.3880 C.3     1  LIG1        0.0000
     10 C10         1.0273   -4.0769   -1.7172 C.2     1  LIG1        0.0000
     11 C11         0.0004   -3.2845   -1.4925 C.2     1  LIG1        0.0000
     12 C12         0.0675   -2.9681   -0.0178 C.3     1  LIG1        0.0000
     13 C13         0.5904   -4.2351    0.5891 C.3     1  LIG1        0.0000
     14 C14         2.3998    0.0032   -0.0242 C.2     1  LIG1        0.0000
     15 Cl15        3.9626   -0.8493   -0.0409 Cl      1  LIG1        0.0000
     16 H           1.1110    3.0485   -0.0000 H       1  LIG1        0.0000
     17 H           2.3249   -5.0616   -0.3288 H       1  LIG1        0.0000
     18 H          -0.7668   -2.5974    0.3902 H       1  LIG1        0.0000
     19 H          -0.8808   -0.4412    0.0020 H       1  LIG1        0.0000
     20 H           2.8906   -2.9660    0.7989 H       1  LIG1        0.0000
     21 H           3.0396   -2.6636   -0.7990 H       1  LIG1        0.0000
     22 H           1.2905   -4.4804   -2.5935 H       1  LIG1        0.0000
     23 H          -0.6766   -2.9625   -2.1543 H       1  LIG1        0.0000
     24 H          -0.0322   -5.0128    0.5029 H       1  LIG1        0.0000
     25 H           0.8750   -4.1401    1.5431 H       1  LIG1        0.0000
@<TRIPOS>BOND
     1     1     2    2
     2     2     3   am
     3     3     4    1
     4     4     5    2
     5     5     6    1
     6     6     7    1
     7     7     8    1
     8     8     9    1
     9     9    10    1
    10    10    11    2
    11    11    12    1
    12    12     7    1
    13    12    13    1
    14    13     9    1
    15     6    14    2
    16    14     2    1
    17    14    15    1
    18     3    16    1
    19     9    17    1
    20    12    18    1
    21     5    19    1
    22     8    20    1
    23     8    21    1
    24    10    22    1
    25    11    23    1
    26    13    24    1
    27    13    25    1
