@<TRIPOS>MOLECULE
*****
 25 27 0 0 0
SMALL
USER_CHARGES

@<TRIPOS>ATOM
      1 O1          3.4192    2.0415   -0.0238 O.2     1  LIG1        0.0000
      2 C2          2.3653    1.4230   -0.0186 C.2     1  LIG1        0.0000
      3 N3          1.1448    2.0491   -0.0047 N.am    1  LIG1        0.0000
      4 N4          0.0122    1.3673    0.0028 N.2     1  LIG1        0.0000
      5 C5         -0.0075    0.0458   -0.0031 C.2     1  LIG1        0.0000
      6 C6          1.2130   -0.6835   -0.0167 C.2     1  LIG1        0.0000
      7 N7          1.2241   -2.0833   -0.0240 N.pl3   1  LIG1        0.0000
      8 C8          1.8601   -2.9509    0.9662 C.3     1  LIG1        0.0000
      9 C9          1.7924   -4.2606    0.2139 C.3     1  LIG1        0.0000
     10 C10         2.5909   -4.0679   -1.0598 C.2     1  LIG1        0.0000
     11 C11         1.8832   -3.2679   -1.8293 C.2     1  LIG1        0.0000
     12 C12         0.6399   -2.9583   -1.0308 C.3     1  LIG1        0.0000
     13 C13         0.3750   -4.2322   -0.2864 C.3     1  LIG1        0.0000
     14 C14         2.3998    0.0032   -0.0242 C.2     1  LIG1        0.0000
     15 Cl15        3.9626   -0.8493   -0.0409 Cl      1  LIG1        0.0000
     16 H           1.1110    3.0485   -0.0000 H       1  LIG1        0.0000
     17 H           2.0368   -5.0694    0.7488 H       1  LIG1        0.0000
     18 H          -0.1304   -2.5823   -1.5458 H       1  LIG1        0.0000
     19 H          -0.8808   -0.4412    0.0020 H       1  LIG1        0.0000
     20 H           1.3443   -2.9835    1.8223 H       1  LIG1        0.0000
     21 H           2.8027   -2.6757    1.1552 H       1  LIG1        0.0000
     22 H           3.4811   -4.4699   -1.2739 H       1  LIG1        0.0000
     23 H           2.1180   -2.9374   -2.7434 H       1  LIG1        0.0000
     24 H           0.1379   -5.0043   -0.8761 H       1  LIG1        0.0000
     25 H          -0.3087   -4.1437    0.4379 H       1  LIG1        0.0000
@<TRIPOS>BOND
     1     1     2    2
     2     2     3   am
     3     3     4    1
     4     4     5    2
     5     5     6    1
     6     6     7    1
     7     7     8    1
     8     8     9    1
     9     9    10    1
    10    10    11    2
    11    11    12    1
    12    12     7    1
    13    12    13    1
    14    13     9    1
    15     6    14    2
    16    14     2    1
    17    14    15    1
    18     3    16    1
    19     9    17    1
    20    12    18    1
    21     5    19    1
    22     8    20    1
    23     8    21    1
    24    10    22    1
    25    11    23    1
    26    13    24    1
    27    13    25    1
