@<TRIPOS>MOLECULE
*****
 25 27 0 0 0
SMALL
USER_CHARGES

@<TRIPOS>ATOM
      1 O1          3.4192    2.0415   -0.0238 O.2     1  LIG1        0.0000
      2 C2          2.3653    1.4230   -0.0186 C.2     1  LIG1        0.0000
      3 N3          1.1448    2.0491   -0.0047 N.am    1  LIG1        0.0000
      4 N4          0.0122    1.3673    0.0028 N.2     1  LIG1        0.0000
      5 C5         -0.0075    0.0458   -0.0031 C.2     1  LIG1        0.0000
      6 C6          1.2130   -0.6835   -0.0167 C.2     1  LIG1        0.0000
      7 N7          1.2241   -2.0889   -0.0240 N.pl3   1  LIG1        0.0000
      8 C8          1.8147   -2.9665   -1.0316 C.3     1  LIG1        0.0000
      9 C9          1.9471   -4.2342   -0.2173 C.3     1  LIG1        0.0000
     10 C10         2.7285   -3.8992    1.0355 C.2     1  LIG1        0.0000
     11 C11         1.9427   -3.1431    1.7671 C.2     1  LIG1        0.0000
     12 C12         0.6599   -2.9709    0.9820 C.3     1  LIG1        0.0000
     13 C13         0.5198   -4.2873    0.2725 C.3     1  LIG1        0.0000
     14 C14         2.3998    0.0032   -0.0242 C.2     1  LIG1        0.0000
     15 Cl15        3.9626   -0.8493   -0.0409 Cl      1  LIG1        0.0000
     16 H           1.1110    3.0485   -0.0000 H       1  LIG1        0.0000
     17 H           2.2614   -5.0395   -0.7199 H       1  LIG1        0.0000
     18 H          -0.1385   -2.6372    1.4831 H       1  LIG1        0.0000
     19 H          -0.8808   -0.4412    0.0020 H       1  LIG1        0.0000
     20 H           2.7030   -2.6300   -1.3441 H       1  LIG1        0.0000
     21 H           1.2097   -3.0906   -1.8182 H       1  LIG1        0.0000
     22 H           3.6569   -4.1946    1.2607 H       1  LIG1        0.0000
     23 H           2.1508   -2.7570    2.6658 H       1  LIG1        0.0000
     24 H          -0.1575   -4.2764   -0.4631 H       1  LIG1        0.0000
     25 H           0.3342   -5.0555    0.8852 H       1  LIG1        0.0000
@<TRIPOS>BOND
     1     1     2    2
     2     2     3   am
     3     3     4    1
     4     4     5    2
     5     5     6    1
     6     6     7    1
     7     7     8    1
     8     8     9    1
     9     9    10    1
    10    10    11    2
    11    11    12    1
    12    12     7    1
    13    12    13    1
    14    13     9    1
    15     6    14    2
    16    14     2    1
    17    14    15    1
    18     3    16    1
    19     9    17    1
    20    12    18    1
    21     5    19    1
    22     8    20    1
    23     8    21    1
    24    10    22    1
    25    11    23    1
    26    13    24    1
    27    13    25    1
